XFLR5 v6.02 Beta

NAC642A015 Wing
T1-54.4 m/s-VLM1-x0.000mm
QInf  =   54.400000 m/s
Alpha =    7.000000
Beta  =    0.000°
Phi   =    0.000°
Ctrl  =   18.000
CL    =    0.503120
Cy    =    0.000000
Cd    =    0.023343     ICd   =    0.014793     PCd   =    0.008550
Cl   = -6.30079e-20
Cm   =   -0.119662
ICn   =   -0.000000     PCn   =   -0.000000 
XCP   =    0.057510     YCP   =    0.000000 
XNP   =    0.000000
Bend. =   36.571835

NAC642A015 Wing
  y-span        Chord      Ai         Cl        PCd          ICd        CmGeom      CmAirf      XTrtop    XTrBot      XCP       BM
   -0.6133     0.2400    -5.114    0.259618    0.006525    0.011746   -0.052645    0.012491     0.5885    0.7132    0.2021    0.0000
   -0.5600     0.2400    -4.622    0.366725    0.006673    0.014974   -0.080239    0.011671     0.5429    0.7412    0.2183    0.3224
   -0.5067     0.2400    -4.199    0.432825    0.006837    0.016032   -0.098786    0.009591     0.5086    0.7588    0.2279    1.0997
   -0.4533     0.2400    -3.842    0.478120    0.007089    0.016190   -0.111914    0.007712     0.4594    0.7718    0.2339    2.4135
   -0.4000     0.2400    -3.550    0.510705    0.007602    0.015963   -0.121452    0.006245     0.3824    0.7829    0.2378    4.3193
   -0.3467     0.2400    -3.314    0.534767    0.008660    0.015593   -0.128497    0.005148     0.2516    0.7943    0.2404    6.8572
   -0.2933     0.2400    -3.126    0.552747    0.009256    0.015197   -0.133741    0.004341     0.1879    0.8024    0.2421   10.0566
   -0.2400     0.2400    -2.980    0.566168    0.009622    0.014831   -0.137637    0.003754     0.1543    0.8083    0.2434   13.9395
   -0.1867     0.2400    -2.869    0.576014    0.009891    0.014524   -0.140481    0.003335     0.1297    0.8127    0.2442   18.5222
   -0.1333     0.2400    -2.790    0.582931    0.010079    0.014288   -0.142470    0.003047     0.1124    0.8157    0.2448   23.8167
   -0.0800     0.2400    -2.738    0.587337    0.010167    0.014128   -0.143734    0.002867     0.1058    0.8177    0.2451   29.8314
   -0.0267     0.2400    -2.713    0.589481    0.010201    0.014048   -0.144348    0.002780     0.1039    0.8187    0.2453   36.5718
    0.0267     0.2400    -2.713    0.589481    0.010201    0.014048   -0.144348    0.002780     0.1039    0.8187    0.2453   36.5718
    0.0800     0.2400    -2.738    0.587337    0.010167    0.014128   -0.143734    0.002867     0.1058    0.8177    0.2451   29.8314
    0.1333     0.2400    -2.790    0.582931    0.010079    0.014288   -0.142470    0.003047     0.1124    0.8157    0.2448   23.8167
    0.1867     0.2400    -2.869    0.576014    0.009891    0.014524   -0.140481    0.003335     0.1297    0.8127    0.2442   18.5222
    0.2400     0.2400    -2.980    0.566168    0.009622    0.014831   -0.137637    0.003754     0.1543    0.8083    0.2434   13.9395
    0.2933     0.2400    -3.126    0.552747    0.009256    0.015197   -0.133741    0.004341     0.1879    0.8024    0.2421   10.0566
    0.3467     0.2400    -3.314    0.534767    0.008660    0.015593   -0.128497    0.005148     0.2516    0.7943    0.2404    6.8572
    0.4000     0.2400    -3.550    0.510705    0.007602    0.015963   -0.121452    0.006245     0.3824    0.7829    0.2378    4.3193
    0.4533     0.2400    -3.842    0.478120    0.007089    0.016190   -0.111914    0.007712     0.4594    0.7718    0.2339    2.4135
    0.5067     0.2400    -4.199    0.432825    0.006837    0.016032   -0.098786    0.009591     0.5086    0.7588    0.2279    1.0997
    0.5600     0.2400    -4.622    0.366725    0.006673    0.014974   -0.080239    0.011671     0.5429    0.7412    0.2183    0.3224
    0.6133     0.2400    -5.114    0.259618    0.006525    0.011746   -0.052645    0.012491     0.5885    0.7132    0.2021    0.0000


Wing Cp Coefficients
 Panel     CtrlPt.x        CtrlPt.y        CtrlPt.z             Cp
NAC642A015 WingCp Coefficients
Strip 1
   8       2.325e-01      -5.600e-01       6.956e-09          0.0587
   9       2.025e-01      -5.600e-01       1.310e-08          0.0964
  10       1.725e-01      -5.600e-01       9.197e-08          0.1352
  11       1.425e-01      -5.600e-01       1.051e-06          0.1829
  12       1.125e-01      -5.600e-01       3.147e-06          0.2486
  13       8.250e-02      -5.600e-01       3.276e-06          0.3514
  14       5.250e-02      -5.600e-01       6.615e-07          0.5544
  15       2.250e-02      -5.600e-01       3.319e-07          1.3135
Strip 2
  16       2.325e-01      -5.067e-01       6.956e-09          0.0742
  17       2.025e-01      -5.067e-01       1.310e-08          0.1221
  18       1.725e-01      -5.067e-01       9.197e-08          0.1709
  19       1.425e-01      -5.067e-01       1.051e-06          0.2297
  20       1.125e-01      -5.067e-01       3.147e-06          0.3082
  21       8.250e-02      -5.067e-01       3.276e-06          0.4267
  22       5.250e-02      -5.067e-01       6.615e-07          0.6523
  23       2.250e-02      -5.067e-01       3.319e-07          1.4840
Strip 3
  24       2.325e-01      -4.533e-01       6.956e-09          0.0860
  25       2.025e-01      -4.533e-01       1.310e-08          0.1414
  26       1.725e-01      -4.533e-01       9.197e-08          0.1971
  27       1.425e-01      -4.533e-01       1.051e-06          0.2630
  28       1.125e-01      -4.533e-01       3.147e-06          0.3492
  29       8.250e-02      -4.533e-01       3.276e-06          0.4769
  30       5.250e-02      -4.533e-01       6.615e-07          0.7163
  31       2.250e-02      -4.533e-01       3.319e-07          1.5982
Strip 4
  32       2.325e-01      -4.000e-01       6.956e-09          0.0950
  33       2.025e-01      -4.000e-01       1.310e-08          0.1558
  34       1.725e-01      -4.000e-01       9.197e-08          0.2164
  35       1.425e-01      -4.000e-01       1.051e-06          0.2870
  36       1.125e-01      -4.000e-01       3.147e-06          0.3784
  37       8.250e-02      -4.000e-01       3.276e-06          0.5121
  38       5.250e-02      -4.000e-01       6.615e-07          0.7613
  39       2.250e-02      -4.000e-01       3.319e-07          1.6801
Strip 5
  40       2.325e-01      -3.467e-01       6.956e-09          0.1019
  41       2.025e-01      -3.467e-01       1.310e-08          0.1667
  42       1.725e-01      -3.467e-01       9.197e-08          0.2308
  43       1.425e-01      -3.467e-01       1.051e-06          0.3047
  44       1.125e-01      -3.467e-01       3.147e-06          0.3996
  45       8.250e-02      -3.467e-01       3.276e-06          0.5378
  46       5.250e-02      -3.467e-01       6.615e-07          0.7943
  47       2.250e-02      -3.467e-01       3.319e-07          1.7409
Strip 6
  48       2.325e-01      -2.933e-01       6.956e-09          0.1070
  49       2.025e-01      -2.933e-01       1.310e-08          0.1748
  50       1.725e-01      -2.933e-01       9.197e-08          0.2414
  51       1.425e-01      -2.933e-01       1.051e-06          0.3179
  52       1.125e-01      -2.933e-01       3.147e-06          0.4154
  53       8.250e-02      -2.933e-01       3.276e-06          0.5568
  54       5.250e-02      -2.933e-01       6.615e-07          0.8188
  55       2.250e-02      -2.933e-01       3.319e-07          1.7867
Strip 7
  56       2.325e-01      -2.400e-01       6.956e-09          0.1109
  57       2.025e-01      -2.400e-01       1.310e-08          0.1808
  58       1.725e-01      -2.400e-01       9.197e-08          0.2493
  59       1.425e-01      -2.400e-01       1.051e-06          0.3276
  60       1.125e-01      -2.400e-01       3.147e-06          0.4270
  61       8.250e-02      -2.400e-01       3.276e-06          0.5709
  62       5.250e-02      -2.400e-01       6.615e-07          0.8370
  63       2.250e-02      -2.400e-01       3.319e-07          1.8210
Strip 8
  64       2.325e-01      -1.867e-01       6.956e-09          0.1137
  65       2.025e-01      -1.867e-01       1.310e-08          0.1852
  66       1.725e-01      -1.867e-01       9.197e-08          0.2551
  67       1.425e-01      -1.867e-01       1.051e-06          0.3346
  68       1.125e-01      -1.867e-01       3.147e-06          0.4355
  69       8.250e-02      -1.867e-01       3.276e-06          0.5811
  70       5.250e-02      -1.867e-01       6.615e-07          0.8504
  71       2.250e-02      -1.867e-01       3.319e-07          1.8464
Strip 9
  72       2.325e-01      -1.333e-01       6.956e-09          0.1157
  73       2.025e-01      -1.333e-01       1.310e-08          0.1883
  74       1.725e-01      -1.333e-01       9.197e-08          0.2591
  75       1.425e-01      -1.333e-01       1.051e-06          0.3396
  76       1.125e-01      -1.333e-01       3.147e-06          0.4414
  77       8.250e-02      -1.333e-01       3.276e-06          0.5883
  78       5.250e-02      -1.333e-01       6.615e-07          0.8598
  79       2.250e-02      -1.333e-01       3.319e-07          1.8644
Strip 10
  80       2.325e-01      -8.000e-02       6.956e-09          0.1169
  81       2.025e-01      -8.000e-02       1.310e-08          0.1903
  82       1.725e-01      -8.000e-02       9.197e-08          0.2617
  83       1.425e-01      -8.000e-02       1.051e-06          0.3427
  84       1.125e-01      -8.000e-02       3.147e-06          0.4452
  85       8.250e-02      -8.000e-02       3.276e-06          0.5929
  86       5.250e-02      -8.000e-02       6.615e-07          0.8658
  87       2.250e-02      -8.000e-02       3.319e-07          1.8758
Strip 11
  88       2.325e-01      -2.667e-02       6.956e-09          0.1175
  89       2.025e-01      -2.667e-02       1.310e-08          0.1912
  90       1.725e-01      -2.667e-02       9.197e-08          0.2629
  91       1.425e-01      -2.667e-02       1.051e-06          0.3442
  92       1.125e-01      -2.667e-02       3.147e-06          0.4470
  93       8.250e-02      -2.667e-02       3.276e-06          0.5951
  94       5.250e-02      -2.667e-02       6.615e-07          0.8687
  95       2.250e-02      -2.667e-02       3.319e-07          1.8814
Strip 12
  96       2.325e-01       2.667e-02       6.956e-09          0.1175
  97       2.025e-01       2.667e-02       1.310e-08          0.1912
  98       1.725e-01       2.667e-02       9.197e-08          0.2629
  99       1.425e-01       2.667e-02       1.051e-06          0.3442
 100       1.125e-01       2.667e-02       3.147e-06          0.4470
 101       8.250e-02       2.667e-02       3.276e-06          0.5951
 102       5.250e-02       2.667e-02       6.615e-07          0.8687
 103       2.250e-02       2.667e-02       3.319e-07          1.8814
Strip 13
 104       2.325e-01       8.000e-02       6.956e-09          0.1169
 105       2.025e-01       8.000e-02       1.310e-08          0.1903
 106       1.725e-01       8.000e-02       9.197e-08          0.2617
 107       1.425e-01       8.000e-02       1.051e-06          0.3427
 108       1.125e-01       8.000e-02       3.147e-06          0.4452
 109       8.250e-02       8.000e-02       3.276e-06          0.5929
 110       5.250e-02       8.000e-02       6.615e-07          0.8658
 111       2.250e-02       8.000e-02       3.319e-07          1.8758
Strip 14
 112       2.325e-01       1.333e-01       6.956e-09          0.1157
 113       2.025e-01       1.333e-01       1.310e-08          0.1883
 114       1.725e-01       1.333e-01       9.197e-08          0.2591
 115       1.425e-01       1.333e-01       1.051e-06          0.3396
 116       1.125e-01       1.333e-01       3.147e-06          0.4414
 117       8.250e-02       1.333e-01       3.276e-06          0.5883
 118       5.250e-02       1.333e-01       6.615e-07          0.8598
 119       2.250e-02       1.333e-01       3.319e-07          1.8644
Strip 15
 120       2.325e-01       1.867e-01       6.956e-09          0.1137
 121       2.025e-01       1.867e-01       1.310e-08          0.1852
 122       1.725e-01       1.867e-01       9.197e-08          0.2551
 123       1.425e-01       1.867e-01       1.051e-06          0.3346
 124       1.125e-01       1.867e-01       3.147e-06          0.4355
 125       8.250e-02       1.867e-01       3.276e-06          0.5811
 126       5.250e-02       1.867e-01       6.615e-07          0.8504
 127       2.250e-02       1.867e-01       3.319e-07          1.8464
Strip 16
 128       2.325e-01       2.400e-01       6.956e-09          0.1109
 129       2.025e-01       2.400e-01       1.310e-08          0.1808
 130       1.725e-01       2.400e-01       9.197e-08          0.2493
 131       1.425e-01       2.400e-01       1.051e-06          0.3276
 132       1.125e-01       2.400e-01       3.147e-06          0.4270
 133       8.250e-02       2.400e-01       3.276e-06          0.5709
 134       5.250e-02       2.400e-01       6.615e-07          0.8370
 135       2.250e-02       2.400e-01       3.319e-07          1.8210
Strip 17
 136       2.325e-01       2.933e-01       6.956e-09          0.1070
 137       2.025e-01       2.933e-01       1.310e-08          0.1748
 138       1.725e-01       2.933e-01       9.197e-08          0.2414
 139       1.425e-01       2.933e-01       1.051e-06          0.3179
 140       1.125e-01       2.933e-01       3.147e-06          0.4154
 141       8.250e-02       2.933e-01       3.276e-06          0.5568
 142       5.250e-02       2.933e-01       6.615e-07          0.8188
 143       2.250e-02       2.933e-01       3.319e-07          1.7867
Strip 18
 144       2.325e-01       3.467e-01       6.956e-09          0.1019
 145       2.025e-01       3.467e-01       1.310e-08          0.1667
 146       1.725e-01       3.467e-01       9.197e-08          0.2308
 147       1.425e-01       3.467e-01       1.051e-06          0.3047
 148       1.125e-01       3.467e-01       3.147e-06          0.3996
 149       8.250e-02       3.467e-01       3.276e-06          0.5378
 150       5.250e-02       3.467e-01       6.615e-07          0.7943
 151       2.250e-02       3.467e-01       3.319e-07          1.7409
Strip 19
 152       2.325e-01       4.000e-01       6.956e-09          0.0950
 153       2.025e-01       4.000e-01       1.310e-08          0.1558
 154       1.725e-01       4.000e-01       9.197e-08          0.2164
 155       1.425e-01       4.000e-01       1.051e-06          0.2870
 156       1.125e-01       4.000e-01       3.147e-06          0.3784
 157       8.250e-02       4.000e-01       3.276e-06          0.5121
 158       5.250e-02       4.000e-01       6.615e-07          0.7613
 159       2.250e-02       4.000e-01       3.319e-07          1.6801
Strip 20
 160       2.325e-01       4.533e-01       6.956e-09          0.0860
 161       2.025e-01       4.533e-01       1.310e-08          0.1414
 162       1.725e-01       4.533e-01       9.197e-08          0.1971
 163       1.425e-01       4.533e-01       1.051e-06          0.2630
 164       1.125e-01       4.533e-01       3.147e-06          0.3492
 165       8.250e-02       4.533e-01       3.276e-06          0.4769
 166       5.250e-02       4.533e-01       6.615e-07          0.7163
 167       2.250e-02       4.533e-01       3.319e-07          1.5982
Strip 21
 168       2.325e-01       5.067e-01       6.956e-09          0.0742
 169       2.025e-01       5.067e-01       1.310e-08          0.1221
 170       1.725e-01       5.067e-01       9.197e-08          0.1709
 171       1.425e-01       5.067e-01       1.051e-06          0.2297
 172       1.125e-01       5.067e-01       3.147e-06          0.3082
 173       8.250e-02       5.067e-01       3.276e-06          0.4267
 174       5.250e-02       5.067e-01       6.615e-07          0.6523
 175       2.250e-02       5.067e-01       3.319e-07          1.4840
Strip 22
 176       2.325e-01       5.600e-01       6.956e-09          0.0587
 177       2.025e-01       5.600e-01       1.310e-08          0.0964
 178       1.725e-01       5.600e-01       9.197e-08          0.1352
 179       1.425e-01       5.600e-01       1.051e-06          0.1829
 180       1.125e-01       5.600e-01       3.147e-06          0.2486
 181       8.250e-02       5.600e-01       3.276e-06          0.3514
 182       5.250e-02       5.600e-01       6.615e-07          0.5544
 183       2.250e-02       5.600e-01       3.319e-07          1.3135
Strip 23
 184       2.325e-01       6.133e-01       6.956e-09          0.0383
 185       2.025e-01       6.133e-01       1.310e-08          0.0618
 186       1.725e-01       6.133e-01       9.197e-08          0.0859
 187       1.425e-01       6.133e-01       1.051e-06          0.1160
 188       1.125e-01       6.133e-01       3.147e-06          0.1587
 189       8.250e-02       6.133e-01       3.276e-06          0.2290
 190       5.250e-02       6.133e-01       6.615e-07          0.3821
 191       2.250e-02       6.133e-01       3.319e-07          1.0126
Strip 24
 192       0.000e+00       0.000e+00       0.000e+00         -2.2276
 193       0.000e+00       0.000e+00       0.000e+00         -3.5959
 194       0.000e+00       0.000e+00       0.000e+00         -4.9978
 195       0.000e+00       0.000e+00       0.000e+00         -6.7505
 196       0.000e+00       0.000e+00       0.000e+00         -9.2340
 197       0.000e+00       0.000e+00       0.000e+00        -13.3311
 198       0.000e+00       0.000e+00       0.000e+00        -22.2388
 199       0.000e+00       0.000e+00       0.000e+00        -58.9332










