XFLR5 v6.02 Beta

NAC642A015 Wing
T1-54.4 m/s-VLM1-x0.000mm
QInf  =   54.400000 m/s
Alpha =    2.500000
Beta  =    0.000°
Phi   =    0.000°
Ctrl  =   18.000
CL    =    0.181225
Cy    =    0.000000
Cd    =    0.008378     ICd   =    0.001908     PCd   =    0.006470
Cl   = -2.56542e-18
Cm   =  -0.0431172
ICn   =    0.000000     PCn   =   -0.000000 
XCP   =    0.057155     YCP   =   -0.000000 
XNP   =    0.000000
Bend. =   13.176605

NAC642A015 Wing
  y-span        Chord      Ai         Cl        PCd          ICd        CmGeom      CmAirf      XTrtop    XTrBot      XCP       BM
   -0.6133     0.2400    -1.847    0.093829    0.006455    0.001515   -0.018970    0.004498     0.6342    0.6740    0.2021    0.0000
   -0.5600     0.2400    -1.669    0.132416    0.006472    0.001931   -0.028913    0.004202     0.6261    0.6827    0.2183    0.1162
   -0.5067     0.2400    -1.515    0.156158    0.006457    0.002068   -0.035596    0.003452     0.6212    0.6883    0.2279    0.3962
   -0.4533     0.2400    -1.386    0.172383    0.006448    0.002088   -0.040326    0.002775     0.6178    0.6921    0.2339    0.8696
   -0.4000     0.2400    -1.280    0.184030    0.006459    0.002059   -0.043762    0.002246     0.6142    0.6948    0.2378    1.5562
   -0.3467     0.2400    -1.195    0.192614    0.006467    0.002011   -0.046301    0.001851     0.6116    0.6967    0.2404    2.4706
   -0.2933     0.2400    -1.127    0.199020    0.006473    0.001960   -0.048190    0.001560     0.6097    0.6982    0.2422    3.6233
   -0.2400     0.2400    -1.074    0.203796    0.006477    0.001913   -0.049594    0.001349     0.6082    0.6993    0.2434    5.0223
   -0.1867     0.2400    -1.034    0.207297    0.006481    0.001873   -0.050618    0.001197     0.6071    0.7001    0.2442    6.6734
   -0.1333     0.2400    -1.006    0.209755    0.006483    0.001843   -0.051335    0.001094     0.6064    0.7007    0.2448    8.5810
   -0.0800     0.2400    -0.987    0.211319    0.006484    0.001822   -0.051790    0.001029     0.6059    0.7010    0.2451   10.7481
   -0.0267     0.2400    -0.978    0.212081    0.006485    0.001812   -0.052012    0.000998     0.6057    0.7012    0.2453   13.1766
    0.0267     0.2400    -0.978    0.212081    0.006485    0.001812   -0.052012    0.000998     0.6057    0.7012    0.2453   13.1766
    0.0800     0.2400    -0.987    0.211319    0.006484    0.001822   -0.051790    0.001029     0.6059    0.7010    0.2451   10.7481
    0.1333     0.2400    -1.006    0.209755    0.006483    0.001843   -0.051335    0.001094     0.6064    0.7007    0.2448    8.5810
    0.1867     0.2400    -1.034    0.207297    0.006481    0.001873   -0.050618    0.001197     0.6071    0.7001    0.2442    6.6734
    0.2400     0.2400    -1.074    0.203796    0.006477    0.001913   -0.049594    0.001349     0.6082    0.6993    0.2434    5.0223
    0.2933     0.2400    -1.127    0.199020    0.006473    0.001960   -0.048190    0.001560     0.6097    0.6982    0.2422    3.6233
    0.3467     0.2400    -1.195    0.192614    0.006467    0.002011   -0.046301    0.001851     0.6116    0.6967    0.2404    2.4706
    0.4000     0.2400    -1.280    0.184030    0.006459    0.002059   -0.043762    0.002246     0.6142    0.6948    0.2378    1.5562
    0.4533     0.2400    -1.386    0.172383    0.006448    0.002088   -0.040326    0.002775     0.6178    0.6921    0.2339    0.8696
    0.5067     0.2400    -1.515    0.156158    0.006457    0.002068   -0.035596    0.003452     0.6212    0.6883    0.2279    0.3962
    0.5600     0.2400    -1.669    0.132416    0.006472    0.001931   -0.028913    0.004202     0.6261    0.6827    0.2183    0.1162
    0.6133     0.2400    -1.847    0.093829    0.006455    0.001515   -0.018970    0.004498     0.6342    0.6740    0.2021    0.0000


Wing Cp Coefficients
 Panel     CtrlPt.x        CtrlPt.y        CtrlPt.z             Cp
NAC642A015 WingCp Coefficients
Strip 1
   8       2.325e-01      -5.600e-01       6.956e-09          0.0211
   9       2.025e-01      -5.600e-01       1.310e-08          0.0347
  10       1.725e-01      -5.600e-01       9.197e-08          0.0486
  11       1.425e-01      -5.600e-01       1.051e-06          0.0660
  12       1.125e-01      -5.600e-01       3.147e-06          0.0899
  13       8.250e-02      -5.600e-01       3.276e-06          0.1265
  14       5.250e-02      -5.600e-01       6.615e-07          0.1997
  15       2.250e-02      -5.600e-01       3.319e-07          0.4731
Strip 2
  16       2.325e-01      -5.067e-01       6.956e-09          0.0267
  17       2.025e-01      -5.067e-01       1.310e-08          0.0439
  18       1.725e-01      -5.067e-01       9.197e-08          0.0615
  19       1.425e-01      -5.067e-01       1.051e-06          0.0829
  20       1.125e-01      -5.067e-01       3.147e-06          0.1113
  21       8.250e-02      -5.067e-01       3.276e-06          0.1536
  22       5.250e-02      -5.067e-01       6.615e-07          0.2350
  23       2.250e-02      -5.067e-01       3.319e-07          0.5346
Strip 3
  24       2.325e-01      -4.533e-01       6.956e-09          0.0310
  25       2.025e-01      -4.533e-01       1.310e-08          0.0509
  26       1.725e-01      -4.533e-01       9.197e-08          0.0709
  27       1.425e-01      -4.533e-01       1.051e-06          0.0949
  28       1.125e-01      -4.533e-01       3.147e-06          0.1261
  29       8.250e-02      -4.533e-01       3.276e-06          0.1717
  30       5.250e-02      -4.533e-01       6.615e-07          0.2580
  31       2.250e-02      -4.533e-01       3.319e-07          0.5757
Strip 4
  32       2.325e-01      -4.000e-01       6.956e-09          0.0342
  33       2.025e-01      -4.000e-01       1.310e-08          0.0561
  34       1.725e-01      -4.000e-01       9.197e-08          0.0779
  35       1.425e-01      -4.000e-01       1.051e-06          0.1035
  36       1.125e-01      -4.000e-01       3.147e-06          0.1366
  37       8.250e-02      -4.000e-01       3.276e-06          0.1844
  38       5.250e-02      -4.000e-01       6.615e-07          0.2743
  39       2.250e-02      -4.000e-01       3.319e-07          0.6052
Strip 5
  40       2.325e-01      -3.467e-01       6.956e-09          0.0367
  41       2.025e-01      -3.467e-01       1.310e-08          0.0600
  42       1.725e-01      -3.467e-01       9.197e-08          0.0831
  43       1.425e-01      -3.467e-01       1.051e-06          0.1099
  44       1.125e-01      -3.467e-01       3.147e-06          0.1443
  45       8.250e-02      -3.467e-01       3.276e-06          0.1936
  46       5.250e-02      -3.467e-01       6.615e-07          0.2861
  47       2.250e-02      -3.467e-01       3.319e-07          0.6271
Strip 6
  48       2.325e-01      -2.933e-01       6.956e-09          0.0385
  49       2.025e-01      -2.933e-01       1.310e-08          0.0629
  50       1.725e-01      -2.933e-01       9.197e-08          0.0869
  51       1.425e-01      -2.933e-01       1.051e-06          0.1147
  52       1.125e-01      -2.933e-01       3.147e-06          0.1500
  53       8.250e-02      -2.933e-01       3.276e-06          0.2005
  54       5.250e-02      -2.933e-01       6.615e-07          0.2950
  55       2.250e-02      -2.933e-01       3.319e-07          0.6436
Strip 7
  56       2.325e-01      -2.400e-01       6.956e-09          0.0399
  57       2.025e-01      -2.400e-01       1.310e-08          0.0651
  58       1.725e-01      -2.400e-01       9.197e-08          0.0897
  59       1.425e-01      -2.400e-01       1.051e-06          0.1181
  60       1.125e-01      -2.400e-01       3.147e-06          0.1541
  61       8.250e-02      -2.400e-01       3.276e-06          0.2056
  62       5.250e-02      -2.400e-01       6.615e-07          0.3015
  63       2.250e-02      -2.400e-01       3.319e-07          0.6560
Strip 8
  64       2.325e-01      -1.867e-01       6.956e-09          0.0409
  65       2.025e-01      -1.867e-01       1.310e-08          0.0667
  66       1.725e-01      -1.867e-01       9.197e-08          0.0918
  67       1.425e-01      -1.867e-01       1.051e-06          0.1207
  68       1.125e-01      -1.867e-01       3.147e-06          0.1572
  69       8.250e-02      -1.867e-01       3.276e-06          0.2093
  70       5.250e-02      -1.867e-01       6.615e-07          0.3064
  71       2.250e-02      -1.867e-01       3.319e-07          0.6652
Strip 9
  72       2.325e-01      -1.333e-01       6.956e-09          0.0417
  73       2.025e-01      -1.333e-01       1.310e-08          0.0678
  74       1.725e-01      -1.333e-01       9.197e-08          0.0933
  75       1.425e-01      -1.333e-01       1.051e-06          0.1225
  76       1.125e-01      -1.333e-01       3.147e-06          0.1593
  77       8.250e-02      -1.333e-01       3.276e-06          0.2118
  78       5.250e-02      -1.333e-01       6.615e-07          0.3097
  79       2.250e-02      -1.333e-01       3.319e-07          0.6716
Strip 10
  80       2.325e-01      -8.000e-02       6.956e-09          0.0421
  81       2.025e-01      -8.000e-02       1.310e-08          0.0685
  82       1.725e-01      -8.000e-02       9.197e-08          0.0942
  83       1.425e-01      -8.000e-02       1.051e-06          0.1236
  84       1.125e-01      -8.000e-02       3.147e-06          0.1607
  85       8.250e-02      -8.000e-02       3.276e-06          0.2135
  86       5.250e-02      -8.000e-02       6.615e-07          0.3119
  87       2.250e-02      -8.000e-02       3.319e-07          0.6757
Strip 11
  88       2.325e-01      -2.667e-02       6.956e-09          0.0423
  89       2.025e-01      -2.667e-02       1.310e-08          0.0688
  90       1.725e-01      -2.667e-02       9.197e-08          0.0946
  91       1.425e-01      -2.667e-02       1.051e-06          0.1241
  92       1.125e-01      -2.667e-02       3.147e-06          0.1614
  93       8.250e-02      -2.667e-02       3.276e-06          0.2143
  94       5.250e-02      -2.667e-02       6.615e-07          0.3130
  95       2.250e-02      -2.667e-02       3.319e-07          0.6777
Strip 12
  96       2.325e-01       2.667e-02       6.956e-09          0.0423
  97       2.025e-01       2.667e-02       1.310e-08          0.0688
  98       1.725e-01       2.667e-02       9.197e-08          0.0946
  99       1.425e-01       2.667e-02       1.051e-06          0.1241
 100       1.125e-01       2.667e-02       3.147e-06          0.1614
 101       8.250e-02       2.667e-02       3.276e-06          0.2143
 102       5.250e-02       2.667e-02       6.615e-07          0.3130
 103       2.250e-02       2.667e-02       3.319e-07          0.6777
Strip 13
 104       2.325e-01       8.000e-02       6.956e-09          0.0421
 105       2.025e-01       8.000e-02       1.310e-08          0.0685
 106       1.725e-01       8.000e-02       9.197e-08          0.0942
 107       1.425e-01       8.000e-02       1.051e-06          0.1236
 108       1.125e-01       8.000e-02       3.147e-06          0.1607
 109       8.250e-02       8.000e-02       3.276e-06          0.2135
 110       5.250e-02       8.000e-02       6.615e-07          0.3119
 111       2.250e-02       8.000e-02       3.319e-07          0.6757
Strip 14
 112       2.325e-01       1.333e-01       6.956e-09          0.0417
 113       2.025e-01       1.333e-01       1.310e-08          0.0678
 114       1.725e-01       1.333e-01       9.197e-08          0.0933
 115       1.425e-01       1.333e-01       1.051e-06          0.1225
 116       1.125e-01       1.333e-01       3.147e-06          0.1593
 117       8.250e-02       1.333e-01       3.276e-06          0.2118
 118       5.250e-02       1.333e-01       6.615e-07          0.3097
 119       2.250e-02       1.333e-01       3.319e-07          0.6716
Strip 15
 120       2.325e-01       1.867e-01       6.956e-09          0.0409
 121       2.025e-01       1.867e-01       1.310e-08          0.0667
 122       1.725e-01       1.867e-01       9.197e-08          0.0918
 123       1.425e-01       1.867e-01       1.051e-06          0.1207
 124       1.125e-01       1.867e-01       3.147e-06          0.1572
 125       8.250e-02       1.867e-01       3.276e-06          0.2093
 126       5.250e-02       1.867e-01       6.615e-07          0.3064
 127       2.250e-02       1.867e-01       3.319e-07          0.6652
Strip 16
 128       2.325e-01       2.400e-01       6.956e-09          0.0399
 129       2.025e-01       2.400e-01       1.310e-08          0.0651
 130       1.725e-01       2.400e-01       9.197e-08          0.0897
 131       1.425e-01       2.400e-01       1.051e-06          0.1181
 132       1.125e-01       2.400e-01       3.147e-06          0.1541
 133       8.250e-02       2.400e-01       3.276e-06          0.2056
 134       5.250e-02       2.400e-01       6.615e-07          0.3015
 135       2.250e-02       2.400e-01       3.319e-07          0.6560
Strip 17
 136       2.325e-01       2.933e-01       6.956e-09          0.0385
 137       2.025e-01       2.933e-01       1.310e-08          0.0629
 138       1.725e-01       2.933e-01       9.197e-08          0.0869
 139       1.425e-01       2.933e-01       1.051e-06          0.1147
 140       1.125e-01       2.933e-01       3.147e-06          0.1500
 141       8.250e-02       2.933e-01       3.276e-06          0.2005
 142       5.250e-02       2.933e-01       6.615e-07          0.2950
 143       2.250e-02       2.933e-01       3.319e-07          0.6436
Strip 18
 144       2.325e-01       3.467e-01       6.956e-09          0.0367
 145       2.025e-01       3.467e-01       1.310e-08          0.0600
 146       1.725e-01       3.467e-01       9.197e-08          0.0831
 147       1.425e-01       3.467e-01       1.051e-06          0.1099
 148       1.125e-01       3.467e-01       3.147e-06          0.1443
 149       8.250e-02       3.467e-01       3.276e-06          0.1936
 150       5.250e-02       3.467e-01       6.615e-07          0.2861
 151       2.250e-02       3.467e-01       3.319e-07          0.6271
Strip 19
 152       2.325e-01       4.000e-01       6.956e-09          0.0342
 153       2.025e-01       4.000e-01       1.310e-08          0.0561
 154       1.725e-01       4.000e-01       9.197e-08          0.0779
 155       1.425e-01       4.000e-01       1.051e-06          0.1035
 156       1.125e-01       4.000e-01       3.147e-06          0.1366
 157       8.250e-02       4.000e-01       3.276e-06          0.1844
 158       5.250e-02       4.000e-01       6.615e-07          0.2743
 159       2.250e-02       4.000e-01       3.319e-07          0.6052
Strip 20
 160       2.325e-01       4.533e-01       6.956e-09          0.0310
 161       2.025e-01       4.533e-01       1.310e-08          0.0509
 162       1.725e-01       4.533e-01       9.197e-08          0.0709
 163       1.425e-01       4.533e-01       1.051e-06          0.0949
 164       1.125e-01       4.533e-01       3.147e-06          0.1261
 165       8.250e-02       4.533e-01       3.276e-06          0.1717
 166       5.250e-02       4.533e-01       6.615e-07          0.2580
 167       2.250e-02       4.533e-01       3.319e-07          0.5757
Strip 21
 168       2.325e-01       5.067e-01       6.956e-09          0.0267
 169       2.025e-01       5.067e-01       1.310e-08          0.0439
 170       1.725e-01       5.067e-01       9.197e-08          0.0615
 171       1.425e-01       5.067e-01       1.051e-06          0.0829
 172       1.125e-01       5.067e-01       3.147e-06          0.1113
 173       8.250e-02       5.067e-01       3.276e-06          0.1536
 174       5.250e-02       5.067e-01       6.615e-07          0.2350
 175       2.250e-02       5.067e-01       3.319e-07          0.5346
Strip 22
 176       2.325e-01       5.600e-01       6.956e-09          0.0211
 177       2.025e-01       5.600e-01       1.310e-08          0.0347
 178       1.725e-01       5.600e-01       9.197e-08          0.0486
 179       1.425e-01       5.600e-01       1.051e-06          0.0660
 180       1.125e-01       5.600e-01       3.147e-06          0.0899
 181       8.250e-02       5.600e-01       3.276e-06          0.1265
 182       5.250e-02       5.600e-01       6.615e-07          0.1997
 183       2.250e-02       5.600e-01       3.319e-07          0.4731
Strip 23
 184       2.325e-01       6.133e-01       6.956e-09          0.0138
 185       2.025e-01       6.133e-01       1.310e-08          0.0222
 186       1.725e-01       6.133e-01       9.197e-08          0.0308
 187       1.425e-01       6.133e-01       1.051e-06          0.0419
 188       1.125e-01       6.133e-01       3.147e-06          0.0575
 189       8.250e-02       6.133e-01       3.276e-06          0.0824
 190       5.250e-02       6.133e-01       6.615e-07          0.1376
 191       2.250e-02       6.133e-01       3.319e-07          0.3648
Strip 24
 192       0.000e+00       0.000e+00       0.000e+00         -0.8992
 193       0.000e+00       0.000e+00       0.000e+00         -1.4496
 194       0.000e+00       0.000e+00       0.000e+00         -2.0139
 195       0.000e+00       0.000e+00       0.000e+00         -2.7321
 196       0.000e+00       0.000e+00       0.000e+00         -3.7439
 197       0.000e+00       0.000e+00       0.000e+00         -5.3778
 198       0.000e+00       0.000e+00       0.000e+00         -8.9804
 199       0.000e+00       0.000e+00       0.000e+00        -23.7986










