XFLR5 v6.02 Beta

NAC642A015 Wing
T1-54.4 m/s-VLM1-x0.000mm
QInf  =   54.400000 m/s
Alpha =    3.500000
Beta  =    0.000°
Phi   =    0.000°
Ctrl  =   18.000
CL    =    0.253405
Cy    =    0.000000
Cd    =    0.010258     ICd   =    0.003733     PCd   =    0.006524
Cl   = 3.58203e-18
Cm   =   -0.060286
ICn   =    0.000000     PCn   =   -0.000000 
XCP   =    0.057204     YCP   =   -0.000000 
XNP   =    0.000000
Bend. =   18.424089

NAC642A015 Wing
  y-span        Chord      Ai         Cl        PCd          ICd        CmGeom      CmAirf      XTrtop    XTrBot      XCP       BM
   -0.6133     0.2400    -2.581    0.131139    0.006473    0.002964   -0.026523    0.006291     0.6263    0.6824    0.2021    0.0000
   -0.5600     0.2400    -2.332    0.185093    0.006460    0.003779   -0.040425    0.005877     0.6139    0.6950    0.2183    0.1624
   -0.5067     0.2400    -2.118    0.218304    0.006491    0.004046   -0.049769    0.004829     0.6038    0.7026    0.2279    0.5540
   -0.4533     0.2400    -1.938    0.241010    0.006510    0.004086   -0.056383    0.003882     0.5958    0.7083    0.2339    1.2159
   -0.4000     0.2400    -1.790    0.257313    0.006523    0.004029   -0.061188    0.003143     0.5894    0.7126    0.2378    2.1760
   -0.3467     0.2400    -1.671    0.269332    0.006532    0.003935   -0.064737    0.002591     0.5848    0.7158    0.2404    3.4545
   -0.2933     0.2400    -1.576    0.278303    0.006539    0.003835   -0.067379    0.002184     0.5812    0.7182    0.2422    5.0663
   -0.2400     0.2400    -1.502    0.284993    0.006545    0.003743   -0.069341    0.001888     0.5786    0.7200    0.2434    7.0224
   -0.1867     0.2400    -1.446    0.289897    0.006550    0.003665   -0.070774    0.001677     0.5767    0.7212    0.2442    9.3311
   -0.1333     0.2400    -1.406    0.293340    0.006554    0.003606   -0.071777    0.001532     0.5753    0.7221    0.2448   11.9983
   -0.0800     0.2400    -1.380    0.295533    0.006557    0.003566   -0.072413    0.001441     0.5744    0.7227    0.2451   15.0284
   -0.0267     0.2400    -1.368    0.296599    0.006558    0.003545   -0.072722    0.001397     0.5740    0.7230    0.2453   18.4241
    0.0267     0.2400    -1.368    0.296599    0.006558    0.003545   -0.072722    0.001397     0.5740    0.7230    0.2453   18.4241
    0.0800     0.2400    -1.380    0.295533    0.006557    0.003566   -0.072413    0.001441     0.5744    0.7227    0.2451   15.0284
    0.1333     0.2400    -1.406    0.293340    0.006554    0.003606   -0.071777    0.001532     0.5753    0.7221    0.2448   11.9983
    0.1867     0.2400    -1.446    0.289897    0.006550    0.003665   -0.070774    0.001677     0.5767    0.7212    0.2442    9.3311
    0.2400     0.2400    -1.502    0.284993    0.006545    0.003743   -0.069341    0.001888     0.5786    0.7200    0.2434    7.0224
    0.2933     0.2400    -1.576    0.278303    0.006539    0.003835   -0.067379    0.002184     0.5812    0.7182    0.2422    5.0663
    0.3467     0.2400    -1.671    0.269332    0.006532    0.003935   -0.064737    0.002591     0.5848    0.7158    0.2404    3.4545
    0.4000     0.2400    -1.790    0.257313    0.006523    0.004029   -0.061188    0.003143     0.5894    0.7126    0.2378    2.1760
    0.4533     0.2400    -1.938    0.241010    0.006510    0.004086   -0.056383    0.003882     0.5958    0.7083    0.2339    1.2159
    0.5067     0.2400    -2.118    0.218304    0.006491    0.004046   -0.049769    0.004829     0.6038    0.7026    0.2279    0.5540
    0.5600     0.2400    -2.332    0.185093    0.006460    0.003779   -0.040425    0.005877     0.6139    0.6950    0.2183    0.1624
    0.6133     0.2400    -2.581    0.131139    0.006473    0.002964   -0.026523    0.006291     0.6263    0.6824    0.2021    0.0000


Wing Cp Coefficients
 Panel     CtrlPt.x        CtrlPt.y        CtrlPt.z             Cp
NAC642A015 WingCp Coefficients
Strip 1
   8       2.325e-01      -5.600e-01       6.956e-09          0.0296
   9       2.025e-01      -5.600e-01       1.310e-08          0.0485
  10       1.725e-01      -5.600e-01       9.197e-08          0.0680
  11       1.425e-01      -5.600e-01       1.051e-06          0.0922
  12       1.125e-01      -5.600e-01       3.147e-06          0.1255
  13       8.250e-02      -5.600e-01       3.276e-06          0.1769
  14       5.250e-02      -5.600e-01       6.615e-07          0.2793
  15       2.250e-02      -5.600e-01       3.319e-07          0.6616
Strip 2
  16       2.325e-01      -5.067e-01       6.956e-09          0.0374
  17       2.025e-01      -5.067e-01       1.310e-08          0.0615
  18       1.725e-01      -5.067e-01       9.197e-08          0.0860
  19       1.425e-01      -5.067e-01       1.051e-06          0.1158
  20       1.125e-01      -5.067e-01       3.147e-06          0.1555
  21       8.250e-02      -5.067e-01       3.276e-06          0.2149
  22       5.250e-02      -5.067e-01       6.615e-07          0.3286
  23       2.250e-02      -5.067e-01       3.319e-07          0.7475
Strip 3
  24       2.325e-01      -4.533e-01       6.956e-09          0.0433
  25       2.025e-01      -4.533e-01       1.310e-08          0.0712
  26       1.725e-01      -4.533e-01       9.197e-08          0.0992
  27       1.425e-01      -4.533e-01       1.051e-06          0.1326
  28       1.125e-01      -4.533e-01       3.147e-06          0.1761
  29       8.250e-02      -4.533e-01       3.276e-06          0.2401
  30       5.250e-02      -4.533e-01       6.615e-07          0.3608
  31       2.250e-02      -4.533e-01       3.319e-07          0.8051
Strip 4
  32       2.325e-01      -4.000e-01       6.956e-09          0.0479
  33       2.025e-01      -4.000e-01       1.310e-08          0.0785
  34       1.725e-01      -4.000e-01       9.197e-08          0.1090
  35       1.425e-01      -4.000e-01       1.051e-06          0.1447
  36       1.125e-01      -4.000e-01       3.147e-06          0.1908
  37       8.250e-02      -4.000e-01       3.276e-06          0.2579
  38       5.250e-02      -4.000e-01       6.615e-07          0.3835
  39       2.250e-02      -4.000e-01       3.319e-07          0.8463
Strip 5
  40       2.325e-01      -3.467e-01       6.956e-09          0.0513
  41       2.025e-01      -3.467e-01       1.310e-08          0.0839
  42       1.725e-01      -3.467e-01       9.197e-08          0.1162
  43       1.425e-01      -3.467e-01       1.051e-06          0.1536
  44       1.125e-01      -3.467e-01       3.147e-06          0.2016
  45       8.250e-02      -3.467e-01       3.276e-06          0.2708
  46       5.250e-02      -3.467e-01       6.615e-07          0.4001
  47       2.250e-02      -3.467e-01       3.319e-07          0.8770
Strip 6
  48       2.325e-01      -2.933e-01       6.956e-09          0.0539
  49       2.025e-01      -2.933e-01       1.310e-08          0.0880
  50       1.725e-01      -2.933e-01       9.197e-08          0.1216
  51       1.425e-01      -2.933e-01       1.051e-06          0.1602
  52       1.125e-01      -2.933e-01       3.147e-06          0.2095
  53       8.250e-02      -2.933e-01       3.276e-06          0.2804
  54       5.250e-02      -2.933e-01       6.615e-07          0.4124
  55       2.250e-02      -2.933e-01       3.319e-07          0.9000
Strip 7
  56       2.325e-01      -2.400e-01       6.956e-09          0.0558
  57       2.025e-01      -2.400e-01       1.310e-08          0.0910
  58       1.725e-01      -2.400e-01       9.197e-08          0.1255
  59       1.425e-01      -2.400e-01       1.051e-06          0.1651
  60       1.125e-01      -2.400e-01       3.147e-06          0.2154
  61       8.250e-02      -2.400e-01       3.276e-06          0.2875
  62       5.250e-02      -2.400e-01       6.615e-07          0.4216
  63       2.250e-02      -2.400e-01       3.319e-07          0.9173
Strip 8
  64       2.325e-01      -1.867e-01       6.956e-09          0.0573
  65       2.025e-01      -1.867e-01       1.310e-08          0.0933
  66       1.725e-01      -1.867e-01       9.197e-08          0.1284
  67       1.425e-01      -1.867e-01       1.051e-06          0.1687
  68       1.125e-01      -1.867e-01       3.147e-06          0.2196
  69       8.250e-02      -1.867e-01       3.276e-06          0.2927
  70       5.250e-02      -1.867e-01       6.615e-07          0.4284
  71       2.250e-02      -1.867e-01       3.319e-07          0.9301
Strip 9
  72       2.325e-01      -1.333e-01       6.956e-09          0.0583
  73       2.025e-01      -1.333e-01       1.310e-08          0.0948
  74       1.725e-01      -1.333e-01       9.197e-08          0.1305
  75       1.425e-01      -1.333e-01       1.051e-06          0.1712
  76       1.125e-01      -1.333e-01       3.147e-06          0.2226
  77       8.250e-02      -1.333e-01       3.276e-06          0.2963
  78       5.250e-02      -1.333e-01       6.615e-07          0.4331
  79       2.250e-02      -1.333e-01       3.319e-07          0.9391
Strip 10
  80       2.325e-01      -8.000e-02       6.956e-09          0.0589
  81       2.025e-01      -8.000e-02       1.310e-08          0.0958
  82       1.725e-01      -8.000e-02       9.197e-08          0.1318
  83       1.425e-01      -8.000e-02       1.051e-06          0.1727
  84       1.125e-01      -8.000e-02       3.147e-06          0.2245
  85       8.250e-02      -8.000e-02       3.276e-06          0.2986
  86       5.250e-02      -8.000e-02       6.615e-07          0.4361
  87       2.250e-02      -8.000e-02       3.319e-07          0.9449
Strip 11
  88       2.325e-01      -2.667e-02       6.956e-09          0.0592
  89       2.025e-01      -2.667e-02       1.310e-08          0.0963
  90       1.725e-01      -2.667e-02       9.197e-08          0.1324
  91       1.425e-01      -2.667e-02       1.051e-06          0.1735
  92       1.125e-01      -2.667e-02       3.147e-06          0.2254
  93       8.250e-02      -2.667e-02       3.276e-06          0.2997
  94       5.250e-02      -2.667e-02       6.615e-07          0.4376
  95       2.250e-02      -2.667e-02       3.319e-07          0.9477
Strip 12
  96       2.325e-01       2.667e-02       6.956e-09          0.0592
  97       2.025e-01       2.667e-02       1.310e-08          0.0963
  98       1.725e-01       2.667e-02       9.197e-08          0.1324
  99       1.425e-01       2.667e-02       1.051e-06          0.1735
 100       1.125e-01       2.667e-02       3.147e-06          0.2254
 101       8.250e-02       2.667e-02       3.276e-06          0.2997
 102       5.250e-02       2.667e-02       6.615e-07          0.4376
 103       2.250e-02       2.667e-02       3.319e-07          0.9477
Strip 13
 104       2.325e-01       8.000e-02       6.956e-09          0.0589
 105       2.025e-01       8.000e-02       1.310e-08          0.0958
 106       1.725e-01       8.000e-02       9.197e-08          0.1318
 107       1.425e-01       8.000e-02       1.051e-06          0.1727
 108       1.125e-01       8.000e-02       3.147e-06          0.2245
 109       8.250e-02       8.000e-02       3.276e-06          0.2986
 110       5.250e-02       8.000e-02       6.615e-07          0.4361
 111       2.250e-02       8.000e-02       3.319e-07          0.9449
Strip 14
 112       2.325e-01       1.333e-01       6.956e-09          0.0583
 113       2.025e-01       1.333e-01       1.310e-08          0.0948
 114       1.725e-01       1.333e-01       9.197e-08          0.1305
 115       1.425e-01       1.333e-01       1.051e-06          0.1712
 116       1.125e-01       1.333e-01       3.147e-06          0.2226
 117       8.250e-02       1.333e-01       3.276e-06          0.2963
 118       5.250e-02       1.333e-01       6.615e-07          0.4331
 119       2.250e-02       1.333e-01       3.319e-07          0.9391
Strip 15
 120       2.325e-01       1.867e-01       6.956e-09          0.0573
 121       2.025e-01       1.867e-01       1.310e-08          0.0933
 122       1.725e-01       1.867e-01       9.197e-08          0.1284
 123       1.425e-01       1.867e-01       1.051e-06          0.1687
 124       1.125e-01       1.867e-01       3.147e-06          0.2196
 125       8.250e-02       1.867e-01       3.276e-06          0.2927
 126       5.250e-02       1.867e-01       6.615e-07          0.4284
 127       2.250e-02       1.867e-01       3.319e-07          0.9301
Strip 16
 128       2.325e-01       2.400e-01       6.956e-09          0.0558
 129       2.025e-01       2.400e-01       1.310e-08          0.0910
 130       1.725e-01       2.400e-01       9.197e-08          0.1255
 131       1.425e-01       2.400e-01       1.051e-06          0.1651
 132       1.125e-01       2.400e-01       3.147e-06          0.2154
 133       8.250e-02       2.400e-01       3.276e-06          0.2875
 134       5.250e-02       2.400e-01       6.615e-07          0.4216
 135       2.250e-02       2.400e-01       3.319e-07          0.9173
Strip 17
 136       2.325e-01       2.933e-01       6.956e-09          0.0539
 137       2.025e-01       2.933e-01       1.310e-08          0.0880
 138       1.725e-01       2.933e-01       9.197e-08          0.1216
 139       1.425e-01       2.933e-01       1.051e-06          0.1602
 140       1.125e-01       2.933e-01       3.147e-06          0.2095
 141       8.250e-02       2.933e-01       3.276e-06          0.2804
 142       5.250e-02       2.933e-01       6.615e-07          0.4124
 143       2.250e-02       2.933e-01       3.319e-07          0.9000
Strip 18
 144       2.325e-01       3.467e-01       6.956e-09          0.0513
 145       2.025e-01       3.467e-01       1.310e-08          0.0839
 146       1.725e-01       3.467e-01       9.197e-08          0.1162
 147       1.425e-01       3.467e-01       1.051e-06          0.1536
 148       1.125e-01       3.467e-01       3.147e-06          0.2016
 149       8.250e-02       3.467e-01       3.276e-06          0.2708
 150       5.250e-02       3.467e-01       6.615e-07          0.4001
 151       2.250e-02       3.467e-01       3.319e-07          0.8770
Strip 19
 152       2.325e-01       4.000e-01       6.956e-09          0.0479
 153       2.025e-01       4.000e-01       1.310e-08          0.0785
 154       1.725e-01       4.000e-01       9.197e-08          0.1090
 155       1.425e-01       4.000e-01       1.051e-06          0.1447
 156       1.125e-01       4.000e-01       3.147e-06          0.1908
 157       8.250e-02       4.000e-01       3.276e-06          0.2579
 158       5.250e-02       4.000e-01       6.615e-07          0.3835
 159       2.250e-02       4.000e-01       3.319e-07          0.8463
Strip 20
 160       2.325e-01       4.533e-01       6.956e-09          0.0433
 161       2.025e-01       4.533e-01       1.310e-08          0.0712
 162       1.725e-01       4.533e-01       9.197e-08          0.0992
 163       1.425e-01       4.533e-01       1.051e-06          0.1326
 164       1.125e-01       4.533e-01       3.147e-06          0.1761
 165       8.250e-02       4.533e-01       3.276e-06          0.2401
 166       5.250e-02       4.533e-01       6.615e-07          0.3608
 167       2.250e-02       4.533e-01       3.319e-07          0.8051
Strip 21
 168       2.325e-01       5.067e-01       6.956e-09          0.0374
 169       2.025e-01       5.067e-01       1.310e-08          0.0615
 170       1.725e-01       5.067e-01       9.197e-08          0.0860
 171       1.425e-01       5.067e-01       1.051e-06          0.1158
 172       1.125e-01       5.067e-01       3.147e-06          0.1555
 173       8.250e-02       5.067e-01       3.276e-06          0.2149
 174       5.250e-02       5.067e-01       6.615e-07          0.3286
 175       2.250e-02       5.067e-01       3.319e-07          0.7475
Strip 22
 176       2.325e-01       5.600e-01       6.956e-09          0.0296
 177       2.025e-01       5.600e-01       1.310e-08          0.0485
 178       1.725e-01       5.600e-01       9.197e-08          0.0680
 179       1.425e-01       5.600e-01       1.051e-06          0.0922
 180       1.125e-01       5.600e-01       3.147e-06          0.1255
 181       8.250e-02       5.600e-01       3.276e-06          0.1769
 182       5.250e-02       5.600e-01       6.615e-07          0.2793
 183       2.250e-02       5.600e-01       3.319e-07          0.6616
Strip 23
 184       2.325e-01       6.133e-01       6.956e-09          0.0193
 185       2.025e-01       6.133e-01       1.310e-08          0.0311
 186       1.725e-01       6.133e-01       9.197e-08          0.0432
 187       1.425e-01       6.133e-01       1.051e-06          0.0585
 188       1.125e-01       6.133e-01       3.147e-06          0.0802
 189       8.250e-02       6.133e-01       3.276e-06          0.1153
 190       5.250e-02       6.133e-01       6.615e-07          0.1925
 191       2.250e-02       6.133e-01       3.319e-07          0.5101
Strip 24
 192       0.000e+00       0.000e+00       0.000e+00         -1.1975
 193       0.000e+00       0.000e+00       0.000e+00         -1.9315
 194       0.000e+00       0.000e+00       0.000e+00         -2.6839
 195       0.000e+00       0.000e+00       0.000e+00         -3.6344
 196       0.000e+00       0.000e+00       0.000e+00         -4.9767
 197       0.000e+00       0.000e+00       0.000e+00         -7.1636
 198       0.000e+00       0.000e+00       0.000e+00        -11.9574
 199       0.000e+00       0.000e+00       0.000e+00        -31.6878










