XFLR5 v6.02 Beta

NAC642A015 Wing
T1-54.4 m/s-VLM1-x0.000mm
QInf  =   54.400000 m/s
Alpha =    9.500000
Beta  =    0.000°
Phi   =    0.000°
Ctrl  =   18.000
CL    =    0.677263
Cy    =    0.000000
Cd    =    0.038289     ICd   =    0.026960     PCd   =    0.011329
Cl   = 2.67972e-18
Cm   =   -0.161032
ICn   =    0.000000     PCn   =    0.000000 
XCP   =    0.057858     YCP   =   -0.000000 
XNP   =    0.000000
Bend. =   49.216215

NAC642A015 Wing
  y-span        Chord      Ai         Cl        PCd          ICd        CmGeom      CmAirf      XTrtop    XTrBot      XCP       BM
   -0.6133     0.2400    -6.867    0.348338    0.006628    0.021408   -0.070846    0.016811     0.5523    0.7363    0.2021    0.0000
   -0.5600     0.2400    -6.210    0.492495    0.007200    0.027291   -0.107979    0.015708     0.4379    0.7762    0.2182    0.4339
   -0.5067     0.2400    -5.642    0.581720    0.010046    0.029218   -0.132938    0.012909     0.1154    0.8152    0.2279    1.4799
   -0.4533     0.2400    -5.165    0.643019    0.011017    0.029506   -0.150605    0.010380     0.0615    0.8438    0.2339    3.2479
   -0.4000     0.2400    -4.772    0.687211    0.011592    0.029093   -0.163441    0.008407     0.0439    0.8684    0.2378    5.8127
   -0.3467     0.2400    -4.456    0.719900    0.012043    0.028419   -0.172921    0.006931     0.0357    0.8907    0.2404    9.2280
   -0.2933     0.2400    -4.204    0.744360    0.012408    0.027696   -0.179979    0.005844     0.0314    0.9098    0.2421   13.5336
   -0.2400     0.2400    -4.007    0.762637    0.012689    0.027030   -0.185221    0.005054     0.0287    0.9249    0.2434   18.7589
   -0.1867     0.2400    -3.859    0.776057    0.012901    0.026470   -0.189048    0.004489     0.0271    0.9345    0.2442   24.9260
   -0.1333     0.2400    -3.752    0.785490    0.013059    0.026039   -0.191726    0.004102     0.0265    0.9393    0.2448   32.0511
   -0.0800     0.2400    -3.683    0.791501    0.013159    0.025749   -0.193427    0.003860     0.0262    0.9424    0.2451   40.1454
   -0.0267     0.2400    -3.649    0.794427    0.013208    0.025604   -0.194253    0.003743     0.0260    0.9439    0.2453   49.2162
    0.0267     0.2400    -3.649    0.794427    0.013208    0.025604   -0.194253    0.003743     0.0260    0.9439    0.2453   49.2162
    0.0800     0.2400    -3.683    0.791501    0.013159    0.025749   -0.193427    0.003860     0.0262    0.9424    0.2451   40.1454
    0.1333     0.2400    -3.752    0.785490    0.013059    0.026039   -0.191726    0.004102     0.0265    0.9393    0.2448   32.0511
    0.1867     0.2400    -3.859    0.776057    0.012901    0.026470   -0.189048    0.004489     0.0271    0.9345    0.2442   24.9260
    0.2400     0.2400    -4.007    0.762637    0.012689    0.027030   -0.185221    0.005054     0.0287    0.9249    0.2434   18.7589
    0.2933     0.2400    -4.204    0.744360    0.012408    0.027696   -0.179979    0.005844     0.0314    0.9098    0.2421   13.5336
    0.3467     0.2400    -4.456    0.719900    0.012043    0.028419   -0.172921    0.006931     0.0357    0.8907    0.2404    9.2280
    0.4000     0.2400    -4.772    0.687211    0.011592    0.029093   -0.163441    0.008407     0.0439    0.8684    0.2378    5.8127
    0.4533     0.2400    -5.165    0.643019    0.011017    0.029506   -0.150605    0.010380     0.0615    0.8438    0.2339    3.2479
    0.5067     0.2400    -5.642    0.581720    0.010046    0.029218   -0.132938    0.012909     0.1154    0.8152    0.2279    1.4799
    0.5600     0.2400    -6.210    0.492495    0.007200    0.027291   -0.107979    0.015708     0.4379    0.7762    0.2182    0.4339
    0.6133     0.2400    -6.867    0.348338    0.006628    0.021408   -0.070846    0.016811     0.5523    0.7363    0.2021    0.0000


Wing Cp Coefficients
 Panel     CtrlPt.x        CtrlPt.y        CtrlPt.z             Cp
NAC642A015 WingCp Coefficients
Strip 1
   8       2.325e-01      -5.600e-01       6.956e-09          0.0790
   9       2.025e-01      -5.600e-01       1.310e-08          0.1298
  10       1.725e-01      -5.600e-01       9.197e-08          0.1820
  11       1.425e-01      -5.600e-01       1.051e-06          0.2460
  12       1.125e-01      -5.600e-01       3.147e-06          0.3343
  13       8.250e-02      -5.600e-01       3.276e-06          0.4730
  14       5.250e-02      -5.600e-01       6.615e-07          0.7462
  15       2.250e-02      -5.600e-01       3.319e-07          1.7677
Strip 2
  16       2.325e-01      -5.067e-01       6.956e-09          0.0998
  17       2.025e-01      -5.067e-01       1.310e-08          0.1643
  18       1.725e-01      -5.067e-01       9.197e-08          0.2301
  19       1.425e-01      -5.067e-01       1.051e-06          0.3090
  20       1.125e-01      -5.067e-01       3.147e-06          0.4146
  21       8.250e-02      -5.067e-01       3.276e-06          0.5743
  22       5.250e-02      -5.067e-01       6.615e-07          0.8778
  23       2.250e-02      -5.067e-01       3.319e-07          1.9972
Strip 3
  24       2.325e-01      -4.533e-01       6.956e-09          0.1158
  25       2.025e-01      -4.533e-01       1.310e-08          0.1903
  26       1.725e-01      -4.533e-01       9.197e-08          0.2653
  27       1.425e-01      -4.533e-01       1.051e-06          0.3538
  28       1.125e-01      -4.533e-01       3.147e-06          0.4697
  29       8.250e-02      -4.533e-01       3.276e-06          0.6418
  30       5.250e-02      -4.533e-01       6.615e-07          0.9639
  31       2.250e-02      -4.533e-01       3.319e-07          2.1508
Strip 4
  32       2.325e-01      -4.000e-01       6.956e-09          0.1279
  33       2.025e-01      -4.000e-01       1.310e-08          0.2097
  34       1.725e-01      -4.000e-01       9.197e-08          0.2913
  35       1.425e-01      -4.000e-01       1.051e-06          0.3862
  36       1.125e-01      -4.000e-01       3.147e-06          0.5090
  37       8.250e-02      -4.000e-01       3.276e-06          0.6893
  38       5.250e-02      -4.000e-01       6.615e-07          1.0246
  39       2.250e-02      -4.000e-01       3.319e-07          2.2611
Strip 5
  40       2.325e-01      -3.467e-01       6.956e-09          0.1371
  41       2.025e-01      -3.467e-01       1.310e-08          0.2243
  42       1.725e-01      -3.467e-01       9.197e-08          0.3106
  43       1.425e-01      -3.467e-01       1.051e-06          0.4100
  44       1.125e-01      -3.467e-01       3.147e-06          0.5376
  45       8.250e-02      -3.467e-01       3.276e-06          0.7238
  46       5.250e-02      -3.467e-01       6.615e-07          1.0689
  47       2.250e-02      -3.467e-01       3.319e-07          2.3429
Strip 6
  48       2.325e-01      -2.933e-01       6.956e-09          0.1440
  49       2.025e-01      -2.933e-01       1.310e-08          0.2352
  50       1.725e-01      -2.933e-01       9.197e-08          0.3249
  51       1.425e-01      -2.933e-01       1.051e-06          0.4277
  52       1.125e-01      -2.933e-01       3.147e-06          0.5588
  53       8.250e-02      -2.933e-01       3.276e-06          0.7494
  54       5.250e-02      -2.933e-01       6.615e-07          1.1019
  55       2.250e-02      -2.933e-01       3.319e-07          2.4044
Strip 7
  56       2.325e-01      -2.400e-01       6.956e-09          0.1492
  57       2.025e-01      -2.400e-01       1.310e-08          0.2434
  58       1.725e-01      -2.400e-01       9.197e-08          0.3356
  59       1.425e-01      -2.400e-01       1.051e-06          0.4407
  60       1.125e-01      -2.400e-01       3.147e-06          0.5745
  61       8.250e-02      -2.400e-01       3.276e-06          0.7683
  62       5.250e-02      -2.400e-01       6.615e-07          1.1265
  63       2.250e-02      -2.400e-01       3.319e-07          2.4507
Strip 8
  64       2.325e-01      -1.867e-01       6.956e-09          0.1530
  65       2.025e-01      -1.867e-01       1.310e-08          0.2493
  66       1.725e-01      -1.867e-01       9.197e-08          0.3433
  67       1.425e-01      -1.867e-01       1.051e-06          0.4503
  68       1.125e-01      -1.867e-01       3.147e-06          0.5859
  69       8.250e-02      -1.867e-01       3.276e-06          0.7821
  70       5.250e-02      -1.867e-01       6.615e-07          1.1445
  71       2.250e-02      -1.867e-01       3.319e-07          2.4849
Strip 9
  72       2.325e-01      -1.333e-01       6.956e-09          0.1556
  73       2.025e-01      -1.333e-01       1.310e-08          0.2534
  74       1.725e-01      -1.333e-01       9.197e-08          0.3487
  75       1.425e-01      -1.333e-01       1.051e-06          0.4569
  76       1.125e-01      -1.333e-01       3.147e-06          0.5938
  77       8.250e-02      -1.333e-01       3.276e-06          0.7918
  78       5.250e-02      -1.333e-01       6.615e-07          1.1571
  79       2.250e-02      -1.333e-01       3.319e-07          2.5090
Strip 10
  80       2.325e-01      -8.000e-02       6.956e-09          0.1573
  81       2.025e-01      -8.000e-02       1.310e-08          0.2561
  82       1.725e-01      -8.000e-02       9.197e-08          0.3522
  83       1.425e-01      -8.000e-02       1.051e-06          0.4611
  84       1.125e-01      -8.000e-02       3.147e-06          0.5989
  85       8.250e-02      -8.000e-02       3.276e-06          0.7980
  86       5.250e-02      -8.000e-02       6.615e-07          1.1652
  87       2.250e-02      -8.000e-02       3.319e-07          2.5244
Strip 11
  88       2.325e-01      -2.667e-02       6.956e-09          0.1581
  89       2.025e-01      -2.667e-02       1.310e-08          0.2574
  90       1.725e-01      -2.667e-02       9.197e-08          0.3538
  91       1.425e-01      -2.667e-02       1.051e-06          0.4632
  92       1.125e-01      -2.667e-02       3.147e-06          0.6014
  93       8.250e-02      -2.667e-02       3.276e-06          0.8010
  94       5.250e-02      -2.667e-02       6.615e-07          1.1691
  95       2.250e-02      -2.667e-02       3.319e-07          2.5319
Strip 12
  96       2.325e-01       2.667e-02       6.956e-09          0.1581
  97       2.025e-01       2.667e-02       1.310e-08          0.2574
  98       1.725e-01       2.667e-02       9.197e-08          0.3538
  99       1.425e-01       2.667e-02       1.051e-06          0.4632
 100       1.125e-01       2.667e-02       3.147e-06          0.6014
 101       8.250e-02       2.667e-02       3.276e-06          0.8010
 102       5.250e-02       2.667e-02       6.615e-07          1.1691
 103       2.250e-02       2.667e-02       3.319e-07          2.5319
Strip 13
 104       2.325e-01       8.000e-02       6.956e-09          0.1573
 105       2.025e-01       8.000e-02       1.310e-08          0.2561
 106       1.725e-01       8.000e-02       9.197e-08          0.3522
 107       1.425e-01       8.000e-02       1.051e-06          0.4611
 108       1.125e-01       8.000e-02       3.147e-06          0.5989
 109       8.250e-02       8.000e-02       3.276e-06          0.7980
 110       5.250e-02       8.000e-02       6.615e-07          1.1652
 111       2.250e-02       8.000e-02       3.319e-07          2.5244
Strip 14
 112       2.325e-01       1.333e-01       6.956e-09          0.1556
 113       2.025e-01       1.333e-01       1.310e-08          0.2534
 114       1.725e-01       1.333e-01       9.197e-08          0.3487
 115       1.425e-01       1.333e-01       1.051e-06          0.4569
 116       1.125e-01       1.333e-01       3.147e-06          0.5938
 117       8.250e-02       1.333e-01       3.276e-06          0.7918
 118       5.250e-02       1.333e-01       6.615e-07          1.1571
 119       2.250e-02       1.333e-01       3.319e-07          2.5090
Strip 15
 120       2.325e-01       1.867e-01       6.956e-09          0.1530
 121       2.025e-01       1.867e-01       1.310e-08          0.2493
 122       1.725e-01       1.867e-01       9.197e-08          0.3433
 123       1.425e-01       1.867e-01       1.051e-06          0.4503
 124       1.125e-01       1.867e-01       3.147e-06          0.5859
 125       8.250e-02       1.867e-01       3.276e-06          0.7821
 126       5.250e-02       1.867e-01       6.615e-07          1.1445
 127       2.250e-02       1.867e-01       3.319e-07          2.4849
Strip 16
 128       2.325e-01       2.400e-01       6.956e-09          0.1492
 129       2.025e-01       2.400e-01       1.310e-08          0.2434
 130       1.725e-01       2.400e-01       9.197e-08          0.3356
 131       1.425e-01       2.400e-01       1.051e-06          0.4407
 132       1.125e-01       2.400e-01       3.147e-06          0.5745
 133       8.250e-02       2.400e-01       3.276e-06          0.7683
 134       5.250e-02       2.400e-01       6.615e-07          1.1265
 135       2.250e-02       2.400e-01       3.319e-07          2.4507
Strip 17
 136       2.325e-01       2.933e-01       6.956e-09          0.1440
 137       2.025e-01       2.933e-01       1.310e-08          0.2352
 138       1.725e-01       2.933e-01       9.197e-08          0.3249
 139       1.425e-01       2.933e-01       1.051e-06          0.4277
 140       1.125e-01       2.933e-01       3.147e-06          0.5588
 141       8.250e-02       2.933e-01       3.276e-06          0.7494
 142       5.250e-02       2.933e-01       6.615e-07          1.1019
 143       2.250e-02       2.933e-01       3.319e-07          2.4044
Strip 18
 144       2.325e-01       3.467e-01       6.956e-09          0.1371
 145       2.025e-01       3.467e-01       1.310e-08          0.2243
 146       1.725e-01       3.467e-01       9.197e-08          0.3106
 147       1.425e-01       3.467e-01       1.051e-06          0.4100
 148       1.125e-01       3.467e-01       3.147e-06          0.5376
 149       8.250e-02       3.467e-01       3.276e-06          0.7238
 150       5.250e-02       3.467e-01       6.615e-07          1.0689
 151       2.250e-02       3.467e-01       3.319e-07          2.3429
Strip 19
 152       2.325e-01       4.000e-01       6.956e-09          0.1279
 153       2.025e-01       4.000e-01       1.310e-08          0.2097
 154       1.725e-01       4.000e-01       9.197e-08          0.2913
 155       1.425e-01       4.000e-01       1.051e-06          0.3862
 156       1.125e-01       4.000e-01       3.147e-06          0.5090
 157       8.250e-02       4.000e-01       3.276e-06          0.6893
 158       5.250e-02       4.000e-01       6.615e-07          1.0246
 159       2.250e-02       4.000e-01       3.319e-07          2.2611
Strip 20
 160       2.325e-01       4.533e-01       6.956e-09          0.1158
 161       2.025e-01       4.533e-01       1.310e-08          0.1903
 162       1.725e-01       4.533e-01       9.197e-08          0.2653
 163       1.425e-01       4.533e-01       1.051e-06          0.3538
 164       1.125e-01       4.533e-01       3.147e-06          0.4697
 165       8.250e-02       4.533e-01       3.276e-06          0.6418
 166       5.250e-02       4.533e-01       6.615e-07          0.9639
 167       2.250e-02       4.533e-01       3.319e-07          2.1508
Strip 21
 168       2.325e-01       5.067e-01       6.956e-09          0.0998
 169       2.025e-01       5.067e-01       1.310e-08          0.1643
 170       1.725e-01       5.067e-01       9.197e-08          0.2301
 171       1.425e-01       5.067e-01       1.051e-06          0.3090
 172       1.125e-01       5.067e-01       3.147e-06          0.4146
 173       8.250e-02       5.067e-01       3.276e-06          0.5743
 174       5.250e-02       5.067e-01       6.615e-07          0.8778
 175       2.250e-02       5.067e-01       3.319e-07          1.9972
Strip 22
 176       2.325e-01       5.600e-01       6.956e-09          0.0790
 177       2.025e-01       5.600e-01       1.310e-08          0.1298
 178       1.725e-01       5.600e-01       9.197e-08          0.1820
 179       1.425e-01       5.600e-01       1.051e-06          0.2460
 180       1.125e-01       5.600e-01       3.147e-06          0.3343
 181       8.250e-02       5.600e-01       3.276e-06          0.4730
 182       5.250e-02       5.600e-01       6.615e-07          0.7462
 183       2.250e-02       5.600e-01       3.319e-07          1.7677
Strip 23
 184       2.325e-01       6.133e-01       6.956e-09          0.0515
 185       2.025e-01       6.133e-01       1.310e-08          0.0832
 186       1.725e-01       6.133e-01       9.197e-08          0.1156
 187       1.425e-01       6.133e-01       1.051e-06          0.1560
 188       1.125e-01       6.133e-01       3.147e-06          0.2134
 189       8.250e-02       6.133e-01       3.276e-06          0.3083
 190       5.250e-02       6.133e-01       6.615e-07          0.5142
 191       2.250e-02       6.133e-01       3.319e-07          1.3627
Strip 24
 192       0.000e+00       0.000e+00       0.000e+00         -2.9440
 193       0.000e+00       0.000e+00       0.000e+00         -4.7533
 194       0.000e+00       0.000e+00       0.000e+00         -6.6069
 195       0.000e+00       0.000e+00       0.000e+00         -8.9173
 196       0.000e+00       0.000e+00       0.000e+00        -12.1944
 197       0.000e+00       0.000e+00       0.000e+00        -17.6200
 198       0.000e+00       0.000e+00       0.000e+00        -29.3884
 199       0.000e+00       0.000e+00       0.000e+00        -77.8796










