XFLR5 v6.02 Beta

NAC642A015 Wing
T1-54.4 m/s-VLM1-x0.000mm
QInf  =   54.400000 m/s
Alpha =    9.000000
Beta  =    0.000°
Phi   =    0.000°
Ctrl  =   18.000
CL    =    0.642790
Cy    =    0.000000
Cd    =    0.035069     ICd   =    0.024254     PCd   =    0.010815
Cl   = 8.19749e-18
Cm   =   -0.152846
ICn   =   -0.000000     PCn   =   -0.000000 
XCP   =    0.057780     YCP   =   -0.000000 
XNP   =    0.000000
Bend. =   46.714261

NAC642A015 Wing
  y-span        Chord      Ai         Cl        PCd          ICd        CmGeom      CmAirf      XTrtop    XTrBot      XCP       BM
   -0.6133     0.2400    -6.521    0.330850    0.006598    0.019259   -0.067244    0.015956     0.5602    0.7317    0.2021    0.0000
   -0.5600     0.2400    -5.896    0.467675    0.007007    0.024551   -0.102490    0.014909     0.4751    0.7687    0.2183    0.4118
   -0.5067     0.2400    -5.357    0.552306    0.009244    0.026285   -0.126180    0.012252     0.1890    0.8022    0.2279    1.4047
   -0.4533     0.2400    -4.903    0.610415    0.010533    0.026545   -0.142949    0.009852     0.0854    0.8282    0.2339    3.0828
   -0.4000     0.2400    -4.531    0.652288    0.011136    0.026173   -0.155132    0.007979     0.0576    0.8488    0.2378    5.5172
   -0.3467     0.2400    -4.230    0.683249    0.011537    0.025566   -0.164131    0.006578     0.0449    0.8658    0.2404    8.7589
   -0.2933     0.2400    -3.991    0.706410    0.011857    0.024916   -0.170830    0.005547     0.0391    0.8815    0.2421   12.8456
   -0.2400     0.2400    -3.804    0.723711    0.012095    0.024317   -0.175805    0.004797     0.0347    0.8932    0.2434   17.8053
   -0.1867     0.2400    -3.663    0.736413    0.012286    0.023813   -0.179438    0.004261     0.0325    0.9033    0.2442   23.6589
   -0.1333     0.2400    -3.561    0.745340    0.012423    0.023426   -0.181980    0.003893     0.0312    0.9106    0.2448   30.4217
   -0.0800     0.2400    -3.496    0.751028    0.012510    0.023165   -0.183594    0.003663     0.0304    0.9153    0.2451   38.1046
   -0.0267     0.2400    -3.464    0.753796    0.012553    0.023034   -0.184378    0.003553     0.0300    0.9176    0.2453   46.7143
    0.0267     0.2400    -3.464    0.753796    0.012553    0.023034   -0.184378    0.003553     0.0300    0.9176    0.2453   46.7143
    0.0800     0.2400    -3.496    0.751028    0.012510    0.023165   -0.183594    0.003663     0.0304    0.9153    0.2451   38.1046
    0.1333     0.2400    -3.561    0.745340    0.012423    0.023426   -0.181980    0.003893     0.0312    0.9106    0.2448   30.4217
    0.1867     0.2400    -3.663    0.736413    0.012286    0.023813   -0.179438    0.004261     0.0325    0.9033    0.2442   23.6589
    0.2400     0.2400    -3.804    0.723711    0.012095    0.024317   -0.175805    0.004797     0.0347    0.8932    0.2434   17.8053
    0.2933     0.2400    -3.991    0.706410    0.011857    0.024916   -0.170830    0.005547     0.0391    0.8815    0.2421   12.8456
    0.3467     0.2400    -4.230    0.683249    0.011537    0.025566   -0.164131    0.006578     0.0449    0.8658    0.2404    8.7589
    0.4000     0.2400    -4.531    0.652288    0.011136    0.026173   -0.155132    0.007979     0.0576    0.8488    0.2378    5.5172
    0.4533     0.2400    -4.903    0.610415    0.010533    0.026545   -0.142949    0.009852     0.0854    0.8282    0.2339    3.0828
    0.5067     0.2400    -5.357    0.552306    0.009244    0.026285   -0.126180    0.012252     0.1890    0.8022    0.2279    1.4047
    0.5600     0.2400    -5.896    0.467675    0.007007    0.024551   -0.102490    0.014909     0.4751    0.7687    0.2183    0.4118
    0.6133     0.2400    -6.521    0.330850    0.006598    0.019259   -0.067244    0.015956     0.5602    0.7317    0.2021    0.0000


Wing Cp Coefficients
 Panel     CtrlPt.x        CtrlPt.y        CtrlPt.z             Cp
NAC642A015 WingCp Coefficients
Strip 1
   8       2.325e-01      -5.600e-01       6.956e-09          0.0750
   9       2.025e-01      -5.600e-01       1.310e-08          0.1232
  10       1.725e-01      -5.600e-01       9.197e-08          0.1727
  11       1.425e-01      -5.600e-01       1.051e-06          0.2335
  12       1.125e-01      -5.600e-01       3.147e-06          0.3174
  13       8.250e-02      -5.600e-01       3.276e-06          0.4489
  14       5.250e-02      -5.600e-01       6.615e-07          0.7082
  15       2.250e-02      -5.600e-01       3.319e-07          1.6778
Strip 2
  16       2.325e-01      -5.067e-01       6.956e-09          0.0947
  17       2.025e-01      -5.067e-01       1.310e-08          0.1560
  18       1.725e-01      -5.067e-01       9.197e-08          0.2184
  19       1.425e-01      -5.067e-01       1.051e-06          0.2933
  20       1.125e-01      -5.067e-01       3.147e-06          0.3935
  21       8.250e-02      -5.067e-01       3.276e-06          0.5451
  22       5.250e-02      -5.067e-01       6.615e-07          0.8332
  23       2.250e-02      -5.067e-01       3.319e-07          1.8957
Strip 3
  24       2.325e-01      -4.533e-01       6.956e-09          0.1099
  25       2.025e-01      -4.533e-01       1.310e-08          0.1806
  26       1.725e-01      -4.533e-01       9.197e-08          0.2518
  27       1.425e-01      -4.533e-01       1.051e-06          0.3358
  28       1.125e-01      -4.533e-01       3.147e-06          0.4459
  29       8.250e-02      -4.533e-01       3.276e-06          0.6092
  30       5.250e-02      -4.533e-01       6.615e-07          0.9149
  31       2.250e-02      -4.533e-01       3.319e-07          2.0415
Strip 4
  32       2.325e-01      -4.000e-01       6.956e-09          0.1214
  33       2.025e-01      -4.000e-01       1.310e-08          0.1991
  34       1.725e-01      -4.000e-01       9.197e-08          0.2765
  35       1.425e-01      -4.000e-01       1.051e-06          0.3666
  36       1.125e-01      -4.000e-01       3.147e-06          0.4832
  37       8.250e-02      -4.000e-01       3.276e-06          0.6542
  38       5.250e-02      -4.000e-01       6.615e-07          0.9725
  39       2.250e-02      -4.000e-01       3.319e-07          2.1461
Strip 5
  40       2.325e-01      -3.467e-01       6.956e-09          0.1301
  41       2.025e-01      -3.467e-01       1.310e-08          0.2129
  42       1.725e-01      -3.467e-01       9.197e-08          0.2948
  43       1.425e-01      -3.467e-01       1.051e-06          0.3892
  44       1.125e-01      -3.467e-01       3.147e-06          0.5103
  45       8.250e-02      -3.467e-01       3.276e-06          0.6870
  46       5.250e-02      -3.467e-01       6.615e-07          1.0146
  47       2.250e-02      -3.467e-01       3.319e-07          2.2238
Strip 6
  48       2.325e-01      -2.933e-01       6.956e-09          0.1367
  49       2.025e-01      -2.933e-01       1.310e-08          0.2233
  50       1.725e-01      -2.933e-01       9.197e-08          0.3084
  51       1.425e-01      -2.933e-01       1.051e-06          0.4060
  52       1.125e-01      -2.933e-01       3.147e-06          0.5304
  53       8.250e-02      -2.933e-01       3.276e-06          0.7113
  54       5.250e-02      -2.933e-01       6.615e-07          1.0459
  55       2.250e-02      -2.933e-01       3.319e-07          2.2822
Strip 7
  56       2.325e-01      -2.400e-01       6.956e-09          0.1416
  57       2.025e-01      -2.400e-01       1.310e-08          0.2310
  58       1.725e-01      -2.400e-01       9.197e-08          0.3185
  59       1.425e-01      -2.400e-01       1.051e-06          0.4183
  60       1.125e-01      -2.400e-01       3.147e-06          0.5453
  61       8.250e-02      -2.400e-01       3.276e-06          0.7292
  62       5.250e-02      -2.400e-01       6.615e-07          1.0692
  63       2.250e-02      -2.400e-01       3.319e-07          2.3261
Strip 8
  64       2.325e-01      -1.867e-01       6.956e-09          0.1452
  65       2.025e-01      -1.867e-01       1.310e-08          0.2366
  66       1.725e-01      -1.867e-01       9.197e-08          0.3259
  67       1.425e-01      -1.867e-01       1.051e-06          0.4274
  68       1.125e-01      -1.867e-01       3.147e-06          0.5561
  69       8.250e-02      -1.867e-01       3.276e-06          0.7424
  70       5.250e-02      -1.867e-01       6.615e-07          1.0863
  71       2.250e-02      -1.867e-01       3.319e-07          2.3585
Strip 9
  72       2.325e-01      -1.333e-01       6.956e-09          0.1477
  73       2.025e-01      -1.333e-01       1.310e-08          0.2406
  74       1.725e-01      -1.333e-01       9.197e-08          0.3310
  75       1.425e-01      -1.333e-01       1.051e-06          0.4337
  76       1.125e-01      -1.333e-01       3.147e-06          0.5637
  77       8.250e-02      -1.333e-01       3.276e-06          0.7515
  78       5.250e-02      -1.333e-01       6.615e-07          1.0983
  79       2.250e-02      -1.333e-01       3.319e-07          2.3814
Strip 10
  80       2.325e-01      -8.000e-02       6.956e-09          0.1493
  81       2.025e-01      -8.000e-02       1.310e-08          0.2431
  82       1.725e-01      -8.000e-02       9.197e-08          0.3343
  83       1.425e-01      -8.000e-02       1.051e-06          0.4377
  84       1.125e-01      -8.000e-02       3.147e-06          0.5685
  85       8.250e-02      -8.000e-02       3.276e-06          0.7574
  86       5.250e-02      -8.000e-02       6.615e-07          1.1060
  87       2.250e-02      -8.000e-02       3.319e-07          2.3961
Strip 11
  88       2.325e-01      -2.667e-02       6.956e-09          0.1501
  89       2.025e-01      -2.667e-02       1.310e-08          0.2443
  90       1.725e-01      -2.667e-02       9.197e-08          0.3359
  91       1.425e-01      -2.667e-02       1.051e-06          0.4396
  92       1.125e-01      -2.667e-02       3.147e-06          0.5708
  93       8.250e-02      -2.667e-02       3.276e-06          0.7602
  94       5.250e-02      -2.667e-02       6.615e-07          1.1097
  95       2.250e-02      -2.667e-02       3.319e-07          2.4032
Strip 12
  96       2.325e-01       2.667e-02       6.956e-09          0.1501
  97       2.025e-01       2.667e-02       1.310e-08          0.2443
  98       1.725e-01       2.667e-02       9.197e-08          0.3359
  99       1.425e-01       2.667e-02       1.051e-06          0.4396
 100       1.125e-01       2.667e-02       3.147e-06          0.5708
 101       8.250e-02       2.667e-02       3.276e-06          0.7602
 102       5.250e-02       2.667e-02       6.615e-07          1.1097
 103       2.250e-02       2.667e-02       3.319e-07          2.4032
Strip 13
 104       2.325e-01       8.000e-02       6.956e-09          0.1493
 105       2.025e-01       8.000e-02       1.310e-08          0.2431
 106       1.725e-01       8.000e-02       9.197e-08          0.3343
 107       1.425e-01       8.000e-02       1.051e-06          0.4377
 108       1.125e-01       8.000e-02       3.147e-06          0.5685
 109       8.250e-02       8.000e-02       3.276e-06          0.7574
 110       5.250e-02       8.000e-02       6.615e-07          1.1060
 111       2.250e-02       8.000e-02       3.319e-07          2.3961
Strip 14
 112       2.325e-01       1.333e-01       6.956e-09          0.1477
 113       2.025e-01       1.333e-01       1.310e-08          0.2406
 114       1.725e-01       1.333e-01       9.197e-08          0.3310
 115       1.425e-01       1.333e-01       1.051e-06          0.4337
 116       1.125e-01       1.333e-01       3.147e-06          0.5637
 117       8.250e-02       1.333e-01       3.276e-06          0.7515
 118       5.250e-02       1.333e-01       6.615e-07          1.0983
 119       2.250e-02       1.333e-01       3.319e-07          2.3814
Strip 15
 120       2.325e-01       1.867e-01       6.956e-09          0.1452
 121       2.025e-01       1.867e-01       1.310e-08          0.2366
 122       1.725e-01       1.867e-01       9.197e-08          0.3259
 123       1.425e-01       1.867e-01       1.051e-06          0.4274
 124       1.125e-01       1.867e-01       3.147e-06          0.5561
 125       8.250e-02       1.867e-01       3.276e-06          0.7424
 126       5.250e-02       1.867e-01       6.615e-07          1.0863
 127       2.250e-02       1.867e-01       3.319e-07          2.3585
Strip 16
 128       2.325e-01       2.400e-01       6.956e-09          0.1416
 129       2.025e-01       2.400e-01       1.310e-08          0.2310
 130       1.725e-01       2.400e-01       9.197e-08          0.3185
 131       1.425e-01       2.400e-01       1.051e-06          0.4183
 132       1.125e-01       2.400e-01       3.147e-06          0.5453
 133       8.250e-02       2.400e-01       3.276e-06          0.7292
 134       5.250e-02       2.400e-01       6.615e-07          1.0692
 135       2.250e-02       2.400e-01       3.319e-07          2.3261
Strip 17
 136       2.325e-01       2.933e-01       6.956e-09          0.1367
 137       2.025e-01       2.933e-01       1.310e-08          0.2233
 138       1.725e-01       2.933e-01       9.197e-08          0.3084
 139       1.425e-01       2.933e-01       1.051e-06          0.4060
 140       1.125e-01       2.933e-01       3.147e-06          0.5304
 141       8.250e-02       2.933e-01       3.276e-06          0.7113
 142       5.250e-02       2.933e-01       6.615e-07          1.0459
 143       2.250e-02       2.933e-01       3.319e-07          2.2822
Strip 18
 144       2.325e-01       3.467e-01       6.956e-09          0.1301
 145       2.025e-01       3.467e-01       1.310e-08          0.2129
 146       1.725e-01       3.467e-01       9.197e-08          0.2948
 147       1.425e-01       3.467e-01       1.051e-06          0.3892
 148       1.125e-01       3.467e-01       3.147e-06          0.5103
 149       8.250e-02       3.467e-01       3.276e-06          0.6870
 150       5.250e-02       3.467e-01       6.615e-07          1.0146
 151       2.250e-02       3.467e-01       3.319e-07          2.2238
Strip 19
 152       2.325e-01       4.000e-01       6.956e-09          0.1214
 153       2.025e-01       4.000e-01       1.310e-08          0.1991
 154       1.725e-01       4.000e-01       9.197e-08          0.2765
 155       1.425e-01       4.000e-01       1.051e-06          0.3666
 156       1.125e-01       4.000e-01       3.147e-06          0.4832
 157       8.250e-02       4.000e-01       3.276e-06          0.6542
 158       5.250e-02       4.000e-01       6.615e-07          0.9725
 159       2.250e-02       4.000e-01       3.319e-07          2.1461
Strip 20
 160       2.325e-01       4.533e-01       6.956e-09          0.1099
 161       2.025e-01       4.533e-01       1.310e-08          0.1806
 162       1.725e-01       4.533e-01       9.197e-08          0.2518
 163       1.425e-01       4.533e-01       1.051e-06          0.3358
 164       1.125e-01       4.533e-01       3.147e-06          0.4459
 165       8.250e-02       4.533e-01       3.276e-06          0.6092
 166       5.250e-02       4.533e-01       6.615e-07          0.9149
 167       2.250e-02       4.533e-01       3.319e-07          2.0415
Strip 21
 168       2.325e-01       5.067e-01       6.956e-09          0.0947
 169       2.025e-01       5.067e-01       1.310e-08          0.1560
 170       1.725e-01       5.067e-01       9.197e-08          0.2184
 171       1.425e-01       5.067e-01       1.051e-06          0.2933
 172       1.125e-01       5.067e-01       3.147e-06          0.3935
 173       8.250e-02       5.067e-01       3.276e-06          0.5451
 174       5.250e-02       5.067e-01       6.615e-07          0.8332
 175       2.250e-02       5.067e-01       3.319e-07          1.8957
Strip 22
 176       2.325e-01       5.600e-01       6.956e-09          0.0750
 177       2.025e-01       5.600e-01       1.310e-08          0.1232
 178       1.725e-01       5.600e-01       9.197e-08          0.1727
 179       1.425e-01       5.600e-01       1.051e-06          0.2335
 180       1.125e-01       5.600e-01       3.147e-06          0.3174
 181       8.250e-02       5.600e-01       3.276e-06          0.4489
 182       5.250e-02       5.600e-01       6.615e-07          0.7082
 183       2.250e-02       5.600e-01       3.319e-07          1.6778
Strip 23
 184       2.325e-01       6.133e-01       6.956e-09          0.0489
 185       2.025e-01       6.133e-01       1.310e-08          0.0789
 186       1.725e-01       6.133e-01       9.197e-08          0.1097
 187       1.425e-01       6.133e-01       1.051e-06          0.1481
 188       1.125e-01       6.133e-01       3.147e-06          0.2026
 189       8.250e-02       6.133e-01       3.276e-06          0.2926
 190       5.250e-02       6.133e-01       6.615e-07          0.4881
 191       2.250e-02       6.133e-01       3.319e-07          1.2935
Strip 24
 192       0.000e+00       0.000e+00       0.000e+00         -2.8023
 193       0.000e+00       0.000e+00       0.000e+00         -4.5244
 194       0.000e+00       0.000e+00       0.000e+00         -6.2887
 195       0.000e+00       0.000e+00       0.000e+00         -8.4889
 196       0.000e+00       0.000e+00       0.000e+00        -11.6090
 197       0.000e+00       0.000e+00       0.000e+00        -16.7719
 198       0.000e+00       0.000e+00       0.000e+00        -27.9746
 199       0.000e+00       0.000e+00       0.000e+00        -74.1332










