XFLR5 v6.02 Beta

NAC642A015 Wing
T1-54.4 m/s-VLM1-x0.000mm
QInf  =   54.400000 m/s
Alpha =   -2.500000
Beta  =    0.000°
Phi   =    0.000°
Ctrl  =   18.000
CL    =   -0.181178
Cy    =    0.000000
Cd    =    0.008379     ICd   =    0.001907     PCd   =    0.006472
Cl   = -2.07751e-18
Cm   =   0.0430942
ICn   =   -0.000000     PCn   =    0.000000 
XCP   =    0.057140     YCP   =    0.000000 
XNP   =    0.000000
Bend. =  -13.173221

NAC642A015 Wing
  y-span        Chord      Ai         Cl        PCd          ICd        CmGeom      CmAirf      XTrtop    XTrBot      XCP       BM
   -0.6133     0.2400     1.846   -0.093807    0.006436    0.001514    0.018958   -0.004504     0.6736    0.6347    0.2020    0.0000
   -0.5600     0.2400     1.668   -0.132383    0.006456    0.001930    0.028895   -0.004211     0.6824    0.6266    0.2182   -0.1161
   -0.5067     0.2400     1.515   -0.156118    0.006466    0.002066    0.035575   -0.003463     0.6883    0.6212    0.2278   -0.3961
   -0.4533     0.2400     1.386   -0.172339    0.006472    0.002087    0.040303   -0.002786     0.6923    0.6175    0.2338   -0.8693
   -0.4000     0.2400     1.280   -0.183982    0.006475    0.002058    0.043739   -0.002258     0.6951    0.6139    0.2377   -1.5558
   -0.3467     0.2400     1.195   -0.192564    0.006477    0.002010    0.046276   -0.001863     0.6972    0.6113    0.2403   -2.4700
   -0.2933     0.2400     1.127   -0.198968    0.006478    0.001959    0.048165   -0.001572     0.6988    0.6094    0.2421   -3.6224
   -0.2400     0.2400     1.074   -0.203743    0.006480    0.001912    0.049568   -0.001361     0.6999    0.6079    0.2433   -5.0210
   -0.1867     0.2400     1.034   -0.207243    0.006480    0.001872    0.050593   -0.001210     0.7007    0.6068    0.2442   -6.6717
   -0.1333     0.2400     1.006   -0.209701    0.006481    0.001842    0.051309   -0.001106     0.7013    0.6061    0.2447   -8.5788
   -0.0800     0.2400     0.987   -0.211265    0.006482    0.001821    0.051764   -0.001041     0.7017    0.6056    0.2451   -10.7453
   -0.0267     0.2400     0.978   -0.212026    0.006482    0.001811    0.051986   -0.001010     0.7019    0.6054    0.2452   -13.1732
    0.0267     0.2400     0.978   -0.212026    0.006482    0.001811    0.051986   -0.001010     0.7019    0.6054    0.2452   -13.1732
    0.0800     0.2400     0.987   -0.211265    0.006482    0.001821    0.051764   -0.001041     0.7017    0.6056    0.2451   -10.7453
    0.1333     0.2400     1.006   -0.209701    0.006481    0.001842    0.051309   -0.001106     0.7013    0.6061    0.2447   -8.5788
    0.1867     0.2400     1.034   -0.207243    0.006480    0.001872    0.050593   -0.001210     0.7007    0.6068    0.2442   -6.6717
    0.2400     0.2400     1.074   -0.203743    0.006480    0.001912    0.049568   -0.001361     0.6999    0.6079    0.2433   -5.0210
    0.2933     0.2400     1.127   -0.198968    0.006478    0.001959    0.048165   -0.001572     0.6988    0.6094    0.2421   -3.6224
    0.3467     0.2400     1.195   -0.192564    0.006477    0.002010    0.046276   -0.001863     0.6972    0.6113    0.2403   -2.4700
    0.4000     0.2400     1.280   -0.183982    0.006475    0.002058    0.043739   -0.002258     0.6951    0.6139    0.2377   -1.5558
    0.4533     0.2400     1.386   -0.172339    0.006472    0.002087    0.040303   -0.002786     0.6923    0.6175    0.2338   -0.8693
    0.5067     0.2400     1.515   -0.156118    0.006466    0.002066    0.035575   -0.003463     0.6883    0.6212    0.2278   -0.3961
    0.5600     0.2400     1.668   -0.132383    0.006456    0.001930    0.028895   -0.004211     0.6824    0.6266    0.2182   -0.1161
    0.6133     0.2400     1.846   -0.093807    0.006436    0.001514    0.018958   -0.004504     0.6736    0.6347    0.2020    0.0000


Wing Cp Coefficients
 Panel     CtrlPt.x        CtrlPt.y        CtrlPt.z             Cp
NAC642A015 WingCp Coefficients
Strip 1
   8       2.325e-01      -5.600e-01       6.956e-09         -0.0212
   9       2.025e-01      -5.600e-01       1.310e-08         -0.0349
  10       1.725e-01      -5.600e-01       9.197e-08         -0.0489
  11       1.425e-01      -5.600e-01       1.051e-06         -0.0656
  12       1.125e-01      -5.600e-01       3.147e-06         -0.0889
  13       8.250e-02      -5.600e-01       3.276e-06         -0.1268
  14       5.250e-02      -5.600e-01       6.615e-07         -0.1998
  15       2.250e-02      -5.600e-01       3.319e-07         -0.4733
Strip 2
  16       2.325e-01      -5.067e-01       6.956e-09         -0.0267
  17       2.025e-01      -5.067e-01       1.310e-08         -0.0441
  18       1.725e-01      -5.067e-01       9.197e-08         -0.0618
  19       1.425e-01      -5.067e-01       1.051e-06         -0.0825
  20       1.125e-01      -5.067e-01       3.147e-06         -0.1104
  21       8.250e-02      -5.067e-01       3.276e-06         -0.1540
  22       5.250e-02      -5.067e-01       6.615e-07         -0.2350
  23       2.250e-02      -5.067e-01       3.319e-07         -0.5348
Strip 3
  24       2.325e-01      -4.533e-01       6.956e-09         -0.0310
  25       2.025e-01      -4.533e-01       1.310e-08         -0.0510
  26       1.725e-01      -4.533e-01       9.197e-08         -0.0712
  27       1.425e-01      -4.533e-01       1.051e-06         -0.0945
  28       1.125e-01      -4.533e-01       3.147e-06         -0.1251
  29       8.250e-02      -4.533e-01       3.276e-06         -0.1720
  30       5.250e-02      -4.533e-01       6.615e-07         -0.2581
  31       2.250e-02      -4.533e-01       3.319e-07         -0.5759
Strip 4
  32       2.325e-01      -4.000e-01       6.956e-09         -0.0343
  33       2.025e-01      -4.000e-01       1.310e-08         -0.0562
  34       1.725e-01      -4.000e-01       9.197e-08         -0.0781
  35       1.425e-01      -4.000e-01       1.051e-06         -0.1031
  36       1.125e-01      -4.000e-01       3.147e-06         -0.1356
  37       8.250e-02      -4.000e-01       3.276e-06         -0.1847
  38       5.250e-02      -4.000e-01       6.615e-07         -0.2743
  39       2.250e-02      -4.000e-01       3.319e-07         -0.6054
Strip 5
  40       2.325e-01      -3.467e-01       6.956e-09         -0.0367
  41       2.025e-01      -3.467e-01       1.310e-08         -0.0602
  42       1.725e-01      -3.467e-01       9.197e-08         -0.0833
  43       1.425e-01      -3.467e-01       1.051e-06         -0.1095
  44       1.125e-01      -3.467e-01       3.147e-06         -0.1433
  45       8.250e-02      -3.467e-01       3.276e-06         -0.1940
  46       5.250e-02      -3.467e-01       6.615e-07         -0.2862
  47       2.250e-02      -3.467e-01       3.319e-07         -0.6273
Strip 6
  48       2.325e-01      -2.933e-01       6.956e-09         -0.0386
  49       2.025e-01      -2.933e-01       1.310e-08         -0.0631
  50       1.725e-01      -2.933e-01       9.197e-08         -0.0871
  51       1.425e-01      -2.933e-01       1.051e-06         -0.1142
  52       1.125e-01      -2.933e-01       3.147e-06         -0.1490
  53       8.250e-02      -2.933e-01       3.276e-06         -0.2008
  54       5.250e-02      -2.933e-01       6.615e-07         -0.2950
  55       2.250e-02      -2.933e-01       3.319e-07         -0.6438
Strip 7
  56       2.325e-01      -2.400e-01       6.956e-09         -0.0400
  57       2.025e-01      -2.400e-01       1.310e-08         -0.0653
  58       1.725e-01      -2.400e-01       9.197e-08         -0.0900
  59       1.425e-01      -2.400e-01       1.051e-06         -0.1177
  60       1.125e-01      -2.400e-01       3.147e-06         -0.1532
  61       8.250e-02      -2.400e-01       3.276e-06         -0.2059
  62       5.250e-02      -2.400e-01       6.615e-07         -0.3016
  63       2.250e-02      -2.400e-01       3.319e-07         -0.6562
Strip 8
  64       2.325e-01      -1.867e-01       6.956e-09         -0.0410
  65       2.025e-01      -1.867e-01       1.310e-08         -0.0668
  66       1.725e-01      -1.867e-01       9.197e-08         -0.0921
  67       1.425e-01      -1.867e-01       1.051e-06         -0.1203
  68       1.125e-01      -1.867e-01       3.147e-06         -0.1562
  69       8.250e-02      -1.867e-01       3.276e-06         -0.2096
  70       5.250e-02      -1.867e-01       6.615e-07         -0.3064
  71       2.250e-02      -1.867e-01       3.319e-07         -0.6653
Strip 9
  72       2.325e-01      -1.333e-01       6.956e-09         -0.0417
  73       2.025e-01      -1.333e-01       1.310e-08         -0.0679
  74       1.725e-01      -1.333e-01       9.197e-08         -0.0935
  75       1.425e-01      -1.333e-01       1.051e-06         -0.1220
  76       1.125e-01      -1.333e-01       3.147e-06         -0.1584
  77       8.250e-02      -1.333e-01       3.276e-06         -0.2122
  78       5.250e-02      -1.333e-01       6.615e-07         -0.3098
  79       2.250e-02      -1.333e-01       3.319e-07         -0.6718
Strip 10
  80       2.325e-01      -8.000e-02       6.956e-09         -0.0421
  81       2.025e-01      -8.000e-02       1.310e-08         -0.0687
  82       1.725e-01      -8.000e-02       9.197e-08         -0.0944
  83       1.425e-01      -8.000e-02       1.051e-06         -0.1232
  84       1.125e-01      -8.000e-02       3.147e-06         -0.1597
  85       8.250e-02      -8.000e-02       3.276e-06         -0.2138
  86       5.250e-02      -8.000e-02       6.615e-07         -0.3120
  87       2.250e-02      -8.000e-02       3.319e-07         -0.6759
Strip 11
  88       2.325e-01      -2.667e-02       6.956e-09         -0.0424
  89       2.025e-01      -2.667e-02       1.310e-08         -0.0690
  90       1.725e-01      -2.667e-02       9.197e-08         -0.0949
  91       1.425e-01      -2.667e-02       1.051e-06         -0.1237
  92       1.125e-01      -2.667e-02       3.147e-06         -0.1604
  93       8.250e-02      -2.667e-02       3.276e-06         -0.2146
  94       5.250e-02      -2.667e-02       6.615e-07         -0.3130
  95       2.250e-02      -2.667e-02       3.319e-07         -0.6779
Strip 12
  96       2.325e-01       2.667e-02       6.956e-09         -0.0424
  97       2.025e-01       2.667e-02       1.310e-08         -0.0690
  98       1.725e-01       2.667e-02       9.197e-08         -0.0949
  99       1.425e-01       2.667e-02       1.051e-06         -0.1237
 100       1.125e-01       2.667e-02       3.147e-06         -0.1604
 101       8.250e-02       2.667e-02       3.276e-06         -0.2146
 102       5.250e-02       2.667e-02       6.615e-07         -0.3130
 103       2.250e-02       2.667e-02       3.319e-07         -0.6779
Strip 13
 104       2.325e-01       8.000e-02       6.956e-09         -0.0421
 105       2.025e-01       8.000e-02       1.310e-08         -0.0687
 106       1.725e-01       8.000e-02       9.197e-08         -0.0944
 107       1.425e-01       8.000e-02       1.051e-06         -0.1232
 108       1.125e-01       8.000e-02       3.147e-06         -0.1597
 109       8.250e-02       8.000e-02       3.276e-06         -0.2138
 110       5.250e-02       8.000e-02       6.615e-07         -0.3120
 111       2.250e-02       8.000e-02       3.319e-07         -0.6759
Strip 14
 112       2.325e-01       1.333e-01       6.956e-09         -0.0417
 113       2.025e-01       1.333e-01       1.310e-08         -0.0679
 114       1.725e-01       1.333e-01       9.197e-08         -0.0935
 115       1.425e-01       1.333e-01       1.051e-06         -0.1220
 116       1.125e-01       1.333e-01       3.147e-06         -0.1584
 117       8.250e-02       1.333e-01       3.276e-06         -0.2122
 118       5.250e-02       1.333e-01       6.615e-07         -0.3098
 119       2.250e-02       1.333e-01       3.319e-07         -0.6718
Strip 15
 120       2.325e-01       1.867e-01       6.956e-09         -0.0410
 121       2.025e-01       1.867e-01       1.310e-08         -0.0668
 122       1.725e-01       1.867e-01       9.197e-08         -0.0921
 123       1.425e-01       1.867e-01       1.051e-06         -0.1203
 124       1.125e-01       1.867e-01       3.147e-06         -0.1562
 125       8.250e-02       1.867e-01       3.276e-06         -0.2096
 126       5.250e-02       1.867e-01       6.615e-07         -0.3064
 127       2.250e-02       1.867e-01       3.319e-07         -0.6653
Strip 16
 128       2.325e-01       2.400e-01       6.956e-09         -0.0400
 129       2.025e-01       2.400e-01       1.310e-08         -0.0653
 130       1.725e-01       2.400e-01       9.197e-08         -0.0900
 131       1.425e-01       2.400e-01       1.051e-06         -0.1177
 132       1.125e-01       2.400e-01       3.147e-06         -0.1532
 133       8.250e-02       2.400e-01       3.276e-06         -0.2059
 134       5.250e-02       2.400e-01       6.615e-07         -0.3016
 135       2.250e-02       2.400e-01       3.319e-07         -0.6562
Strip 17
 136       2.325e-01       2.933e-01       6.956e-09         -0.0386
 137       2.025e-01       2.933e-01       1.310e-08         -0.0631
 138       1.725e-01       2.933e-01       9.197e-08         -0.0871
 139       1.425e-01       2.933e-01       1.051e-06         -0.1142
 140       1.125e-01       2.933e-01       3.147e-06         -0.1490
 141       8.250e-02       2.933e-01       3.276e-06         -0.2008
 142       5.250e-02       2.933e-01       6.615e-07         -0.2950
 143       2.250e-02       2.933e-01       3.319e-07         -0.6438
Strip 18
 144       2.325e-01       3.467e-01       6.956e-09         -0.0367
 145       2.025e-01       3.467e-01       1.310e-08         -0.0602
 146       1.725e-01       3.467e-01       9.197e-08         -0.0833
 147       1.425e-01       3.467e-01       1.051e-06         -0.1095
 148       1.125e-01       3.467e-01       3.147e-06         -0.1433
 149       8.250e-02       3.467e-01       3.276e-06         -0.1940
 150       5.250e-02       3.467e-01       6.615e-07         -0.2862
 151       2.250e-02       3.467e-01       3.319e-07         -0.6273
Strip 19
 152       2.325e-01       4.000e-01       6.956e-09         -0.0343
 153       2.025e-01       4.000e-01       1.310e-08         -0.0562
 154       1.725e-01       4.000e-01       9.197e-08         -0.0781
 155       1.425e-01       4.000e-01       1.051e-06         -0.1031
 156       1.125e-01       4.000e-01       3.147e-06         -0.1356
 157       8.250e-02       4.000e-01       3.276e-06         -0.1847
 158       5.250e-02       4.000e-01       6.615e-07         -0.2743
 159       2.250e-02       4.000e-01       3.319e-07         -0.6054
Strip 20
 160       2.325e-01       4.533e-01       6.956e-09         -0.0310
 161       2.025e-01       4.533e-01       1.310e-08         -0.0510
 162       1.725e-01       4.533e-01       9.197e-08         -0.0712
 163       1.425e-01       4.533e-01       1.051e-06         -0.0945
 164       1.125e-01       4.533e-01       3.147e-06         -0.1251
 165       8.250e-02       4.533e-01       3.276e-06         -0.1720
 166       5.250e-02       4.533e-01       6.615e-07         -0.2581
 167       2.250e-02       4.533e-01       3.319e-07         -0.5759
Strip 21
 168       2.325e-01       5.067e-01       6.956e-09         -0.0267
 169       2.025e-01       5.067e-01       1.310e-08         -0.0441
 170       1.725e-01       5.067e-01       9.197e-08         -0.0618
 171       1.425e-01       5.067e-01       1.051e-06         -0.0825
 172       1.125e-01       5.067e-01       3.147e-06         -0.1104
 173       8.250e-02       5.067e-01       3.276e-06         -0.1540
 174       5.250e-02       5.067e-01       6.615e-07         -0.2350
 175       2.250e-02       5.067e-01       3.319e-07         -0.5348
Strip 22
 176       2.325e-01       5.600e-01       6.956e-09         -0.0212
 177       2.025e-01       5.600e-01       1.310e-08         -0.0349
 178       1.725e-01       5.600e-01       9.197e-08         -0.0489
 179       1.425e-01       5.600e-01       1.051e-06         -0.0656
 180       1.125e-01       5.600e-01       3.147e-06         -0.0889
 181       8.250e-02       5.600e-01       3.276e-06         -0.1268
 182       5.250e-02       5.600e-01       6.615e-07         -0.1998
 183       2.250e-02       5.600e-01       3.319e-07         -0.4733
Strip 23
 184       2.325e-01       6.133e-01       6.956e-09         -0.0138
 185       2.025e-01       6.133e-01       1.310e-08         -0.0224
 186       1.725e-01       6.133e-01       9.197e-08         -0.0311
 187       1.425e-01       6.133e-01       1.051e-06         -0.0416
 188       1.125e-01       6.133e-01       3.147e-06         -0.0566
 189       8.250e-02       6.133e-01       3.276e-06         -0.0828
 190       5.250e-02       6.133e-01       6.615e-07         -0.1377
 191       2.250e-02       6.133e-01       3.319e-07         -0.3649
Strip 24
 192       0.000e+00       0.000e+00       0.000e+00          0.6013
 193       0.000e+00       0.000e+00       0.000e+00          0.9747
 194       0.000e+00       0.000e+00       0.000e+00          1.3566
 195       0.000e+00       0.000e+00       0.000e+00          1.8073
 196       0.000e+00       0.000e+00       0.000e+00          2.4580
 197       0.000e+00       0.000e+00       0.000e+00          3.6058
 198       0.000e+00       0.000e+00       0.000e+00          5.9962
 199       0.000e+00       0.000e+00       0.000e+00         15.8889










