XFLR5 v6.02 Beta

NAC642A015 Wing
T1-54.4 m/s-VLM1-x0.000mm
QInf  =   54.400000 m/s
Alpha =   10.500000
Beta  =    0.000°
Phi   =    0.000°
Ctrl  =   18.000
CL    =    0.745607
Cy    =    0.000000
Cd    =    0.045229     ICd   =    0.032766     PCd   =    0.012463
Cl   = 3.56991e-18
Cm   =   -0.177254
ICn   =   -0.000000     PCn   =   -0.000000 
XCP   =    0.058027     YCP   =    0.000000 
XNP   =    0.000000
Bend. =   54.174392

NAC642A015 Wing
  y-span        Chord      Ai         Cl        PCd          ICd        CmGeom      CmAirf      XTrtop    XTrBot      XCP       BM
   -0.6133     0.2400    -7.552    0.382878    0.006713    0.026018   -0.077983    0.018505     0.5345    0.7455    0.2021    0.0000
   -0.5600     0.2400    -6.830    0.541572    0.008952    0.033168   -0.118857    0.017291     0.2159    0.7975    0.2182    0.4776
   -0.5067     0.2400    -6.206    0.639932    0.010977    0.035510   -0.146330    0.014210     0.0628    0.8422    0.2279    1.6290
   -0.4533     0.2400    -5.682    0.707591    0.011873    0.035861   -0.165776    0.011427     0.0388    0.8823    0.2339    3.5751
   -0.4000     0.2400    -5.251    0.756418    0.012593    0.035359   -0.179906    0.009254     0.0296    0.9198    0.2378    6.3983
   -0.3467     0.2400    -4.902    0.792566    0.013177    0.034539   -0.190341    0.007629     0.0261    0.9430    0.2404   10.1577
   -0.2933     0.2400    -4.625    0.819632    0.013630    0.033661   -0.198110    0.006434     0.0244    0.9569    0.2421   14.8970
   -0.2400     0.2400    -4.409    0.839866    0.013968    0.032851   -0.203880    0.005564     0.0232    0.9670    0.2434   20.6487
   -0.1867     0.2400    -4.246    0.854729    0.014217    0.032170   -0.208093    0.004942     0.0223    0.9744    0.2442   27.4371
   -0.1333     0.2400    -4.128    0.865179    0.014392    0.031647   -0.211041    0.004516     0.0216    0.9796    0.2448   35.2800
   -0.0800     0.2400    -4.053    0.871839    0.014503    0.031295   -0.212912    0.004249     0.0212    0.9829    0.2451   44.1898
   -0.0267     0.2400    -4.015    0.875082    0.014557    0.031118   -0.213822    0.004121     0.0210    0.9845    0.2453   54.1744
    0.0267     0.2400    -4.015    0.875082    0.014557    0.031118   -0.213822    0.004121     0.0210    0.9845    0.2453   54.1744
    0.0800     0.2400    -4.053    0.871839    0.014503    0.031295   -0.212912    0.004249     0.0212    0.9829    0.2451   44.1898
    0.1333     0.2400    -4.128    0.865179    0.014392    0.031647   -0.211041    0.004516     0.0216    0.9796    0.2448   35.2800
    0.1867     0.2400    -4.246    0.854729    0.014217    0.032170   -0.208093    0.004942     0.0223    0.9744    0.2442   27.4371
    0.2400     0.2400    -4.409    0.839866    0.013968    0.032851   -0.203880    0.005564     0.0232    0.9670    0.2434   20.6487
    0.2933     0.2400    -4.625    0.819632    0.013630    0.033661   -0.198110    0.006434     0.0244    0.9569    0.2421   14.8970
    0.3467     0.2400    -4.902    0.792566    0.013177    0.034539   -0.190341    0.007629     0.0261    0.9430    0.2404   10.1577
    0.4000     0.2400    -5.251    0.756418    0.012593    0.035359   -0.179906    0.009254     0.0296    0.9198    0.2378    6.3983
    0.4533     0.2400    -5.682    0.707591    0.011873    0.035861   -0.165776    0.011427     0.0388    0.8823    0.2339    3.5751
    0.5067     0.2400    -6.206    0.639932    0.010977    0.035510   -0.146330    0.014210     0.0628    0.8422    0.2279    1.6290
    0.5600     0.2400    -6.830    0.541572    0.008952    0.033168   -0.118857    0.017291     0.2159    0.7975    0.2182    0.4776
    0.6133     0.2400    -7.552    0.382878    0.006713    0.026018   -0.077983    0.018505     0.5345    0.7455    0.2021    0.0000


Wing Cp Coefficients
 Panel     CtrlPt.x        CtrlPt.y        CtrlPt.z             Cp
NAC642A015 WingCp Coefficients
Strip 1
   8       2.325e-01      -5.600e-01       6.956e-09          0.0870
   9       2.025e-01      -5.600e-01       1.310e-08          0.1429
  10       1.725e-01      -5.600e-01       9.197e-08          0.2004
  11       1.425e-01      -5.600e-01       1.051e-06          0.2708
  12       1.125e-01      -5.600e-01       3.147e-06          0.3680
  13       8.250e-02      -5.600e-01       3.276e-06          0.5206
  14       5.250e-02      -5.600e-01       6.615e-07          0.8213
  15       2.250e-02      -5.600e-01       3.319e-07          1.9458
Strip 2
  16       2.325e-01      -5.067e-01       6.956e-09          0.1099
  17       2.025e-01      -5.067e-01       1.310e-08          0.1809
  18       1.725e-01      -5.067e-01       9.197e-08          0.2533
  19       1.425e-01      -5.067e-01       1.051e-06          0.3401
  20       1.125e-01      -5.067e-01       3.147e-06          0.4563
  21       8.250e-02      -5.067e-01       3.276e-06          0.6322
  22       5.250e-02      -5.067e-01       6.615e-07          0.9662
  23       2.250e-02      -5.067e-01       3.319e-07          2.1984
Strip 3
  24       2.325e-01      -4.533e-01       6.956e-09          0.1274
  25       2.025e-01      -4.533e-01       1.310e-08          0.2095
  26       1.725e-01      -4.533e-01       9.197e-08          0.2921
  27       1.425e-01      -4.533e-01       1.051e-06          0.3894
  28       1.125e-01      -4.533e-01       3.147e-06          0.5170
  29       8.250e-02      -4.533e-01       3.276e-06          0.7065
  30       5.250e-02      -4.533e-01       6.615e-07          1.0611
  31       2.250e-02      -4.533e-01       3.319e-07          2.3675
Strip 4
  32       2.325e-01      -4.000e-01       6.956e-09          0.1408
  33       2.025e-01      -4.000e-01       1.310e-08          0.2309
  34       1.725e-01      -4.000e-01       9.197e-08          0.3207
  35       1.425e-01      -4.000e-01       1.051e-06          0.4251
  36       1.125e-01      -4.000e-01       3.147e-06          0.5602
  37       8.250e-02      -4.000e-01       3.276e-06          0.7587
  38       5.250e-02      -4.000e-01       6.615e-07          1.1278
  39       2.250e-02      -4.000e-01       3.319e-07          2.4889
Strip 5
  40       2.325e-01      -3.467e-01       6.956e-09          0.1509
  41       2.025e-01      -3.467e-01       1.310e-08          0.2469
  42       1.725e-01      -3.467e-01       9.197e-08          0.3419
  43       1.425e-01      -3.467e-01       1.051e-06          0.4513
  44       1.125e-01      -3.467e-01       3.147e-06          0.5918
  45       8.250e-02      -3.467e-01       3.276e-06          0.7968
  46       5.250e-02      -3.467e-01       6.615e-07          1.1766
  47       2.250e-02      -3.467e-01       3.319e-07          2.5789
Strip 6
  48       2.325e-01      -2.933e-01       6.956e-09          0.1585
  49       2.025e-01      -2.933e-01       1.310e-08          0.2589
  50       1.725e-01      -2.933e-01       9.197e-08          0.3577
  51       1.425e-01      -2.933e-01       1.051e-06          0.4707
  52       1.125e-01      -2.933e-01       3.147e-06          0.6151
  53       8.250e-02      -2.933e-01       3.276e-06          0.8249
  54       5.250e-02      -2.933e-01       6.615e-07          1.2129
  55       2.250e-02      -2.933e-01       3.319e-07          2.6467
Strip 7
  56       2.325e-01      -2.400e-01       6.956e-09          0.1642
  57       2.025e-01      -2.400e-01       1.310e-08          0.2679
  58       1.725e-01      -2.400e-01       9.197e-08          0.3694
  59       1.425e-01      -2.400e-01       1.051e-06          0.4851
  60       1.125e-01      -2.400e-01       3.147e-06          0.6323
  61       8.250e-02      -2.400e-01       3.276e-06          0.8457
  62       5.250e-02      -2.400e-01       6.615e-07          1.2399
  63       2.250e-02      -2.400e-01       3.319e-07          2.6976
Strip 8
  64       2.325e-01      -1.867e-01       6.956e-09          0.1684
  65       2.025e-01      -1.867e-01       1.310e-08          0.2744
  66       1.725e-01      -1.867e-01       9.197e-08          0.3779
  67       1.425e-01      -1.867e-01       1.051e-06          0.4956
  68       1.125e-01      -1.867e-01       3.147e-06          0.6448
  69       8.250e-02      -1.867e-01       3.276e-06          0.8609
  70       5.250e-02      -1.867e-01       6.615e-07          1.2598
  71       2.250e-02      -1.867e-01       3.319e-07          2.7352
Strip 9
  72       2.325e-01      -1.333e-01       6.956e-09          0.1713
  73       2.025e-01      -1.333e-01       1.310e-08          0.2790
  74       1.725e-01      -1.333e-01       9.197e-08          0.3839
  75       1.425e-01      -1.333e-01       1.051e-06          0.5029
  76       1.125e-01      -1.333e-01       3.147e-06          0.6536
  77       8.250e-02      -1.333e-01       3.276e-06          0.8716
  78       5.250e-02      -1.333e-01       6.615e-07          1.2737
  79       2.250e-02      -1.333e-01       3.319e-07          2.7618
Strip 10
  80       2.325e-01      -8.000e-02       6.956e-09          0.1732
  81       2.025e-01      -8.000e-02       1.310e-08          0.2819
  82       1.725e-01      -8.000e-02       9.197e-08          0.3877
  83       1.425e-01      -8.000e-02       1.051e-06          0.5075
  84       1.125e-01      -8.000e-02       3.147e-06          0.6592
  85       8.250e-02      -8.000e-02       3.276e-06          0.8784
  86       5.250e-02      -8.000e-02       6.615e-07          1.2826
  87       2.250e-02      -8.000e-02       3.319e-07          2.7787
Strip 11
  88       2.325e-01      -2.667e-02       6.956e-09          0.1741
  89       2.025e-01      -2.667e-02       1.310e-08          0.2833
  90       1.725e-01      -2.667e-02       9.197e-08          0.3895
  91       1.425e-01      -2.667e-02       1.051e-06          0.5098
  92       1.125e-01      -2.667e-02       3.147e-06          0.6619
  93       8.250e-02      -2.667e-02       3.276e-06          0.8817
  94       5.250e-02      -2.667e-02       6.615e-07          1.2869
  95       2.250e-02      -2.667e-02       3.319e-07          2.7870
Strip 12
  96       2.325e-01       2.667e-02       6.956e-09          0.1741
  97       2.025e-01       2.667e-02       1.310e-08          0.2833
  98       1.725e-01       2.667e-02       9.197e-08          0.3895
  99       1.425e-01       2.667e-02       1.051e-06          0.5098
 100       1.125e-01       2.667e-02       3.147e-06          0.6619
 101       8.250e-02       2.667e-02       3.276e-06          0.8817
 102       5.250e-02       2.667e-02       6.615e-07          1.2869
 103       2.250e-02       2.667e-02       3.319e-07          2.7870
Strip 13
 104       2.325e-01       8.000e-02       6.956e-09          0.1732
 105       2.025e-01       8.000e-02       1.310e-08          0.2819
 106       1.725e-01       8.000e-02       9.197e-08          0.3877
 107       1.425e-01       8.000e-02       1.051e-06          0.5075
 108       1.125e-01       8.000e-02       3.147e-06          0.6592
 109       8.250e-02       8.000e-02       3.276e-06          0.8784
 110       5.250e-02       8.000e-02       6.615e-07          1.2826
 111       2.250e-02       8.000e-02       3.319e-07          2.7787
Strip 14
 112       2.325e-01       1.333e-01       6.956e-09          0.1713
 113       2.025e-01       1.333e-01       1.310e-08          0.2790
 114       1.725e-01       1.333e-01       9.197e-08          0.3839
 115       1.425e-01       1.333e-01       1.051e-06          0.5029
 116       1.125e-01       1.333e-01       3.147e-06          0.6536
 117       8.250e-02       1.333e-01       3.276e-06          0.8716
 118       5.250e-02       1.333e-01       6.615e-07          1.2737
 119       2.250e-02       1.333e-01       3.319e-07          2.7618
Strip 15
 120       2.325e-01       1.867e-01       6.956e-09          0.1684
 121       2.025e-01       1.867e-01       1.310e-08          0.2744
 122       1.725e-01       1.867e-01       9.197e-08          0.3779
 123       1.425e-01       1.867e-01       1.051e-06          0.4956
 124       1.125e-01       1.867e-01       3.147e-06          0.6448
 125       8.250e-02       1.867e-01       3.276e-06          0.8609
 126       5.250e-02       1.867e-01       6.615e-07          1.2598
 127       2.250e-02       1.867e-01       3.319e-07          2.7352
Strip 16
 128       2.325e-01       2.400e-01       6.956e-09          0.1642
 129       2.025e-01       2.400e-01       1.310e-08          0.2679
 130       1.725e-01       2.400e-01       9.197e-08          0.3694
 131       1.425e-01       2.400e-01       1.051e-06          0.4851
 132       1.125e-01       2.400e-01       3.147e-06          0.6323
 133       8.250e-02       2.400e-01       3.276e-06          0.8457
 134       5.250e-02       2.400e-01       6.615e-07          1.2399
 135       2.250e-02       2.400e-01       3.319e-07          2.6976
Strip 17
 136       2.325e-01       2.933e-01       6.956e-09          0.1585
 137       2.025e-01       2.933e-01       1.310e-08          0.2589
 138       1.725e-01       2.933e-01       9.197e-08          0.3577
 139       1.425e-01       2.933e-01       1.051e-06          0.4707
 140       1.125e-01       2.933e-01       3.147e-06          0.6151
 141       8.250e-02       2.933e-01       3.276e-06          0.8249
 142       5.250e-02       2.933e-01       6.615e-07          1.2129
 143       2.250e-02       2.933e-01       3.319e-07          2.6467
Strip 18
 144       2.325e-01       3.467e-01       6.956e-09          0.1509
 145       2.025e-01       3.467e-01       1.310e-08          0.2469
 146       1.725e-01       3.467e-01       9.197e-08          0.3419
 147       1.425e-01       3.467e-01       1.051e-06          0.4513
 148       1.125e-01       3.467e-01       3.147e-06          0.5918
 149       8.250e-02       3.467e-01       3.276e-06          0.7968
 150       5.250e-02       3.467e-01       6.615e-07          1.1766
 151       2.250e-02       3.467e-01       3.319e-07          2.5789
Strip 19
 152       2.325e-01       4.000e-01       6.956e-09          0.1408
 153       2.025e-01       4.000e-01       1.310e-08          0.2309
 154       1.725e-01       4.000e-01       9.197e-08          0.3207
 155       1.425e-01       4.000e-01       1.051e-06          0.4251
 156       1.125e-01       4.000e-01       3.147e-06          0.5602
 157       8.250e-02       4.000e-01       3.276e-06          0.7587
 158       5.250e-02       4.000e-01       6.615e-07          1.1278
 159       2.250e-02       4.000e-01       3.319e-07          2.4889
Strip 20
 160       2.325e-01       4.533e-01       6.956e-09          0.1274
 161       2.025e-01       4.533e-01       1.310e-08          0.2095
 162       1.725e-01       4.533e-01       9.197e-08          0.2921
 163       1.425e-01       4.533e-01       1.051e-06          0.3894
 164       1.125e-01       4.533e-01       3.147e-06          0.5170
 165       8.250e-02       4.533e-01       3.276e-06          0.7065
 166       5.250e-02       4.533e-01       6.615e-07          1.0611
 167       2.250e-02       4.533e-01       3.319e-07          2.3675
Strip 21
 168       2.325e-01       5.067e-01       6.956e-09          0.1099
 169       2.025e-01       5.067e-01       1.310e-08          0.1809
 170       1.725e-01       5.067e-01       9.197e-08          0.2533
 171       1.425e-01       5.067e-01       1.051e-06          0.3401
 172       1.125e-01       5.067e-01       3.147e-06          0.4563
 173       8.250e-02       5.067e-01       3.276e-06          0.6322
 174       5.250e-02       5.067e-01       6.615e-07          0.9662
 175       2.250e-02       5.067e-01       3.319e-07          2.1984
Strip 22
 176       2.325e-01       5.600e-01       6.956e-09          0.0870
 177       2.025e-01       5.600e-01       1.310e-08          0.1429
 178       1.725e-01       5.600e-01       9.197e-08          0.2004
 179       1.425e-01       5.600e-01       1.051e-06          0.2708
 180       1.125e-01       5.600e-01       3.147e-06          0.3680
 181       8.250e-02       5.600e-01       3.276e-06          0.5206
 182       5.250e-02       5.600e-01       6.615e-07          0.8213
 183       2.250e-02       5.600e-01       3.319e-07          1.9458
Strip 23
 184       2.325e-01       6.133e-01       6.956e-09          0.0567
 185       2.025e-01       6.133e-01       1.310e-08          0.0916
 186       1.725e-01       6.133e-01       9.197e-08          0.1273
 187       1.425e-01       6.133e-01       1.051e-06          0.1717
 188       1.125e-01       6.133e-01       3.147e-06          0.2349
 189       8.250e-02       6.133e-01       3.276e-06          0.3394
 190       5.250e-02       6.133e-01       6.615e-07          0.5661
 191       2.250e-02       6.133e-01       3.319e-07          1.5000
Strip 24
 192       0.000e+00       0.000e+00       0.000e+00         -3.2245
 193       0.000e+00       0.000e+00       0.000e+00         -5.2066
 194       0.000e+00       0.000e+00       0.000e+00         -7.2371
 195       0.000e+00       0.000e+00       0.000e+00         -9.7660
 196       0.000e+00       0.000e+00       0.000e+00        -13.3538
 197       0.000e+00       0.000e+00       0.000e+00        -19.2998
 198       0.000e+00       0.000e+00       0.000e+00        -32.1886
 199       0.000e+00       0.000e+00       0.000e+00        -85.3001










