XFLR5 v6.02 Beta

NAC642A015 Wing
T1-54.4 m/s-VLM1-x0.000mm
QInf  =   54.400000 m/s
Alpha =   11.500000
Beta  =    0.000°
Phi   =    0.000°
Ctrl  =   18.000
CL    =    0.813085
Cy    =    0.000000
Cd    =    0.052756     ICd   =    0.039084     PCd   =    0.013672
Cl   = -9.53089e-18
Cm   =   -0.193261
ICn   =    0.000000     PCn   =    0.000000 
XCP   =    0.058214     YCP   =    0.000000 
XNP   =    0.000000
Bend. =   59.066566

NAC642A015 Wing
  y-span        Chord      Ai         Cl        PCd          ICd        CmGeom      CmAirf      XTrtop    XTrBot      XCP       BM
   -0.6133     0.2400    -8.225    0.416796    0.006797    0.031035   -0.085024    0.020176     0.5170    0.7545    0.2021    0.0000
   -0.5600     0.2400    -7.440    0.589837    0.010207    0.039563   -0.129590    0.018853     0.1036    0.8188    0.2182    0.5207
   -0.5067     0.2400    -6.762    0.697257    0.011730    0.042357   -0.159544    0.015493     0.0414    0.8753    0.2279    1.7761
   -0.4533     0.2400    -6.191    0.771248    0.012821    0.042775   -0.180746    0.012459     0.0274    0.9320    0.2339    3.8980
   -0.4000     0.2400    -5.722    0.824706    0.013714    0.042176   -0.196151    0.010090     0.0241    0.9594    0.2378    6.9761
   -0.3467     0.2400    -5.343    0.864317    0.014377    0.041198   -0.207529    0.008319     0.0217    0.9791    0.2404   11.0750
   -0.2933     0.2400    -5.041    0.893998    0.014912    0.040151   -0.216000    0.007015     0.0201    0.9909    0.2421   16.2423
   -0.2400     0.2400    -4.806    0.916199    0.015376    0.039185   -0.222291    0.006067     0.0194    0.9947    0.2434   22.5134
   -0.1867     0.2400    -4.628    0.932513    0.015716    0.038373   -0.226884    0.005389     0.0188    0.9975    0.2442   29.9148
   -0.1333     0.2400    -4.500    0.943988    0.015956    0.037749   -0.230098    0.004924     0.0185    0.9994    0.2448   38.4659
   -0.0800     0.2400    -4.417    0.951302    0.016166    0.037329   -0.232139    0.004634     0.0182    1.0000    0.2451   48.1803
   -0.0267     0.2400    -4.376    0.954863    0.016290    0.037117   -0.233130    0.004494     0.0181    1.0000    0.2453   59.0666
    0.0267     0.2400    -4.376    0.954863    0.016290    0.037117   -0.233130    0.004494     0.0181    1.0000    0.2453   59.0666
    0.0800     0.2400    -4.417    0.951302    0.016166    0.037329   -0.232139    0.004634     0.0182    1.0000    0.2451   48.1803
    0.1333     0.2400    -4.500    0.943988    0.015956    0.037749   -0.230098    0.004924     0.0185    0.9994    0.2448   38.4659
    0.1867     0.2400    -4.628    0.932513    0.015716    0.038373   -0.226884    0.005389     0.0188    0.9975    0.2442   29.9148
    0.2400     0.2400    -4.806    0.916199    0.015376    0.039185   -0.222291    0.006067     0.0194    0.9947    0.2434   22.5134
    0.2933     0.2400    -5.041    0.893998    0.014912    0.040151   -0.216000    0.007015     0.0201    0.9909    0.2421   16.2423
    0.3467     0.2400    -5.343    0.864317    0.014377    0.041198   -0.207529    0.008319     0.0217    0.9791    0.2404   11.0750
    0.4000     0.2400    -5.722    0.824706    0.013714    0.042176   -0.196151    0.010090     0.0241    0.9594    0.2378    6.9761
    0.4533     0.2400    -6.191    0.771248    0.012821    0.042775   -0.180746    0.012459     0.0274    0.9320    0.2339    3.8980
    0.5067     0.2400    -6.762    0.697257    0.011730    0.042357   -0.159544    0.015493     0.0414    0.8753    0.2279    1.7761
    0.5600     0.2400    -7.440    0.589837    0.010207    0.039563   -0.129590    0.018853     0.1036    0.8188    0.2182    0.5207
    0.6133     0.2400    -8.225    0.416796    0.006797    0.031035   -0.085024    0.020176     0.5170    0.7545    0.2021    0.0000


Wing Cp Coefficients
 Panel     CtrlPt.x        CtrlPt.y        CtrlPt.z             Cp
NAC642A015 WingCp Coefficients
Strip 1
   8       2.325e-01      -5.600e-01       6.956e-09          0.0948
   9       2.025e-01      -5.600e-01       1.310e-08          0.1558
  10       1.725e-01      -5.600e-01       9.197e-08          0.2185
  11       1.425e-01      -5.600e-01       1.051e-06          0.2953
  12       1.125e-01      -5.600e-01       3.147e-06          0.4012
  13       8.250e-02      -5.600e-01       3.276e-06          0.5677
  14       5.250e-02      -5.600e-01       6.615e-07          0.8955
  15       2.250e-02      -5.600e-01       3.319e-07          2.1215
Strip 2
  16       2.325e-01      -5.067e-01       6.956e-09          0.1198
  17       2.025e-01      -5.067e-01       1.310e-08          0.1972
  18       1.725e-01      -5.067e-01       9.197e-08          0.2762
  19       1.425e-01      -5.067e-01       1.051e-06          0.3708
  20       1.125e-01      -5.067e-01       3.147e-06          0.4974
  21       8.250e-02      -5.067e-01       3.276e-06          0.6893
  22       5.250e-02      -5.067e-01       6.615e-07          1.0535
  23       2.250e-02      -5.067e-01       3.319e-07          2.3970
Strip 3
  24       2.325e-01      -4.533e-01       6.956e-09          0.1389
  25       2.025e-01      -4.533e-01       1.310e-08          0.2284
  26       1.725e-01      -4.533e-01       9.197e-08          0.3185
  27       1.425e-01      -4.533e-01       1.051e-06          0.4246
  28       1.125e-01      -4.533e-01       3.147e-06          0.5637
  29       8.250e-02      -4.533e-01       3.276e-06          0.7703
  30       5.250e-02      -4.533e-01       6.615e-07          1.1569
  31       2.250e-02      -4.533e-01       3.319e-07          2.5813
Strip 4
  32       2.325e-01      -4.000e-01       6.956e-09          0.1535
  33       2.025e-01      -4.000e-01       1.310e-08          0.2517
  34       1.725e-01      -4.000e-01       9.197e-08          0.3496
  35       1.425e-01      -4.000e-01       1.051e-06          0.4635
  36       1.125e-01      -4.000e-01       3.147e-06          0.6108
  37       8.250e-02      -4.000e-01       3.276e-06          0.8273
  38       5.250e-02      -4.000e-01       6.615e-07          1.2297
  39       2.250e-02      -4.000e-01       3.319e-07          2.7136
Strip 5
  40       2.325e-01      -3.467e-01       6.956e-09          0.1645
  41       2.025e-01      -3.467e-01       1.310e-08          0.2692
  42       1.725e-01      -3.467e-01       9.197e-08          0.3728
  43       1.425e-01      -3.467e-01       1.051e-06          0.4921
  44       1.125e-01      -3.467e-01       3.147e-06          0.6451
  45       8.250e-02      -3.467e-01       3.276e-06          0.8687
  46       5.250e-02      -3.467e-01       6.615e-07          1.2829
  47       2.250e-02      -3.467e-01       3.319e-07          2.8118
Strip 6
  48       2.325e-01      -2.933e-01       6.956e-09          0.1729
  49       2.025e-01      -2.933e-01       1.310e-08          0.2823
  50       1.725e-01      -2.933e-01       9.197e-08          0.3900
  51       1.425e-01      -2.933e-01       1.051e-06          0.5132
  52       1.125e-01      -2.933e-01       3.147e-06          0.6706
  53       8.250e-02      -2.933e-01       3.276e-06          0.8994
  54       5.250e-02      -2.933e-01       6.615e-07          1.3224
  55       2.250e-02      -2.933e-01       3.319e-07          2.8857
Strip 7
  56       2.325e-01      -2.400e-01       6.956e-09          0.1791
  57       2.025e-01      -2.400e-01       1.310e-08          0.2921
  58       1.725e-01      -2.400e-01       9.197e-08          0.4028
  59       1.425e-01      -2.400e-01       1.051e-06          0.5289
  60       1.125e-01      -2.400e-01       3.147e-06          0.6893
  61       8.250e-02      -2.400e-01       3.276e-06          0.9221
  62       5.250e-02      -2.400e-01       6.615e-07          1.3519
  63       2.250e-02      -2.400e-01       3.319e-07          2.9412
Strip 8
  64       2.325e-01      -1.867e-01       6.956e-09          0.1836
  65       2.025e-01      -1.867e-01       1.310e-08          0.2992
  66       1.725e-01      -1.867e-01       9.197e-08          0.4121
  67       1.425e-01      -1.867e-01       1.051e-06          0.5403
  68       1.125e-01      -1.867e-01       3.147e-06          0.7030
  69       8.250e-02      -1.867e-01       3.276e-06          0.9387
  70       5.250e-02      -1.867e-01       6.615e-07          1.3736
  71       2.250e-02      -1.867e-01       3.319e-07          2.9822
Strip 9
  72       2.325e-01      -1.333e-01       6.956e-09          0.1868
  73       2.025e-01      -1.333e-01       1.310e-08          0.3042
  74       1.725e-01      -1.333e-01       9.197e-08          0.4186
  75       1.425e-01      -1.333e-01       1.051e-06          0.5483
  76       1.125e-01      -1.333e-01       3.147e-06          0.7126
  77       8.250e-02      -1.333e-01       3.276e-06          0.9503
  78       5.250e-02      -1.333e-01       6.615e-07          1.3887
  79       2.250e-02      -1.333e-01       3.319e-07          3.0112
Strip 10
  80       2.325e-01      -8.000e-02       6.956e-09          0.1888
  81       2.025e-01      -8.000e-02       1.310e-08          0.3074
  82       1.725e-01      -8.000e-02       9.197e-08          0.4227
  83       1.425e-01      -8.000e-02       1.051e-06          0.5534
  84       1.125e-01      -8.000e-02       3.147e-06          0.7187
  85       8.250e-02      -8.000e-02       3.276e-06          0.9577
  86       5.250e-02      -8.000e-02       6.615e-07          1.3984
  87       2.250e-02      -8.000e-02       3.319e-07          3.0297
Strip 11
  88       2.325e-01      -2.667e-02       6.956e-09          0.1898
  89       2.025e-01      -2.667e-02       1.310e-08          0.3089
  90       1.725e-01      -2.667e-02       9.197e-08          0.4247
  91       1.425e-01      -2.667e-02       1.051e-06          0.5558
  92       1.125e-01      -2.667e-02       3.147e-06          0.7216
  93       8.250e-02      -2.667e-02       3.276e-06          0.9613
  94       5.250e-02      -2.667e-02       6.615e-07          1.4031
  95       2.250e-02      -2.667e-02       3.319e-07          3.0387
Strip 12
  96       2.325e-01       2.667e-02       6.956e-09          0.1898
  97       2.025e-01       2.667e-02       1.310e-08          0.3089
  98       1.725e-01       2.667e-02       9.197e-08          0.4247
  99       1.425e-01       2.667e-02       1.051e-06          0.5558
 100       1.125e-01       2.667e-02       3.147e-06          0.7216
 101       8.250e-02       2.667e-02       3.276e-06          0.9613
 102       5.250e-02       2.667e-02       6.615e-07          1.4031
 103       2.250e-02       2.667e-02       3.319e-07          3.0387
Strip 13
 104       2.325e-01       8.000e-02       6.956e-09          0.1888
 105       2.025e-01       8.000e-02       1.310e-08          0.3074
 106       1.725e-01       8.000e-02       9.197e-08          0.4227
 107       1.425e-01       8.000e-02       1.051e-06          0.5534
 108       1.125e-01       8.000e-02       3.147e-06          0.7187
 109       8.250e-02       8.000e-02       3.276e-06          0.9577
 110       5.250e-02       8.000e-02       6.615e-07          1.3984
 111       2.250e-02       8.000e-02       3.319e-07          3.0297
Strip 14
 112       2.325e-01       1.333e-01       6.956e-09          0.1868
 113       2.025e-01       1.333e-01       1.310e-08          0.3042
 114       1.725e-01       1.333e-01       9.197e-08          0.4186
 115       1.425e-01       1.333e-01       1.051e-06          0.5483
 116       1.125e-01       1.333e-01       3.147e-06          0.7126
 117       8.250e-02       1.333e-01       3.276e-06          0.9503
 118       5.250e-02       1.333e-01       6.615e-07          1.3887
 119       2.250e-02       1.333e-01       3.319e-07          3.0112
Strip 15
 120       2.325e-01       1.867e-01       6.956e-09          0.1836
 121       2.025e-01       1.867e-01       1.310e-08          0.2992
 122       1.725e-01       1.867e-01       9.197e-08          0.4121
 123       1.425e-01       1.867e-01       1.051e-06          0.5403
 124       1.125e-01       1.867e-01       3.147e-06          0.7030
 125       8.250e-02       1.867e-01       3.276e-06          0.9387
 126       5.250e-02       1.867e-01       6.615e-07          1.3736
 127       2.250e-02       1.867e-01       3.319e-07          2.9822
Strip 16
 128       2.325e-01       2.400e-01       6.956e-09          0.1791
 129       2.025e-01       2.400e-01       1.310e-08          0.2921
 130       1.725e-01       2.400e-01       9.197e-08          0.4028
 131       1.425e-01       2.400e-01       1.051e-06          0.5289
 132       1.125e-01       2.400e-01       3.147e-06          0.6893
 133       8.250e-02       2.400e-01       3.276e-06          0.9221
 134       5.250e-02       2.400e-01       6.615e-07          1.3519
 135       2.250e-02       2.400e-01       3.319e-07          2.9412
Strip 17
 136       2.325e-01       2.933e-01       6.956e-09          0.1729
 137       2.025e-01       2.933e-01       1.310e-08          0.2823
 138       1.725e-01       2.933e-01       9.197e-08          0.3900
 139       1.425e-01       2.933e-01       1.051e-06          0.5132
 140       1.125e-01       2.933e-01       3.147e-06          0.6706
 141       8.250e-02       2.933e-01       3.276e-06          0.8994
 142       5.250e-02       2.933e-01       6.615e-07          1.3224
 143       2.250e-02       2.933e-01       3.319e-07          2.8857
Strip 18
 144       2.325e-01       3.467e-01       6.956e-09          0.1645
 145       2.025e-01       3.467e-01       1.310e-08          0.2692
 146       1.725e-01       3.467e-01       9.197e-08          0.3728
 147       1.425e-01       3.467e-01       1.051e-06          0.4921
 148       1.125e-01       3.467e-01       3.147e-06          0.6451
 149       8.250e-02       3.467e-01       3.276e-06          0.8687
 150       5.250e-02       3.467e-01       6.615e-07          1.2829
 151       2.250e-02       3.467e-01       3.319e-07          2.8118
Strip 19
 152       2.325e-01       4.000e-01       6.956e-09          0.1535
 153       2.025e-01       4.000e-01       1.310e-08          0.2517
 154       1.725e-01       4.000e-01       9.197e-08          0.3496
 155       1.425e-01       4.000e-01       1.051e-06          0.4635
 156       1.125e-01       4.000e-01       3.147e-06          0.6108
 157       8.250e-02       4.000e-01       3.276e-06          0.8273
 158       5.250e-02       4.000e-01       6.615e-07          1.2297
 159       2.250e-02       4.000e-01       3.319e-07          2.7136
Strip 20
 160       2.325e-01       4.533e-01       6.956e-09          0.1389
 161       2.025e-01       4.533e-01       1.310e-08          0.2284
 162       1.725e-01       4.533e-01       9.197e-08          0.3185
 163       1.425e-01       4.533e-01       1.051e-06          0.4246
 164       1.125e-01       4.533e-01       3.147e-06          0.5637
 165       8.250e-02       4.533e-01       3.276e-06          0.7703
 166       5.250e-02       4.533e-01       6.615e-07          1.1569
 167       2.250e-02       4.533e-01       3.319e-07          2.5813
Strip 21
 168       2.325e-01       5.067e-01       6.956e-09          0.1198
 169       2.025e-01       5.067e-01       1.310e-08          0.1972
 170       1.725e-01       5.067e-01       9.197e-08          0.2762
 171       1.425e-01       5.067e-01       1.051e-06          0.3708
 172       1.125e-01       5.067e-01       3.147e-06          0.4974
 173       8.250e-02       5.067e-01       3.276e-06          0.6893
 174       5.250e-02       5.067e-01       6.615e-07          1.0535
 175       2.250e-02       5.067e-01       3.319e-07          2.3970
Strip 22
 176       2.325e-01       5.600e-01       6.956e-09          0.0948
 177       2.025e-01       5.600e-01       1.310e-08          0.1558
 178       1.725e-01       5.600e-01       9.197e-08          0.2185
 179       1.425e-01       5.600e-01       1.051e-06          0.2953
 180       1.125e-01       5.600e-01       3.147e-06          0.4012
 181       8.250e-02       5.600e-01       3.276e-06          0.5677
 182       5.250e-02       5.600e-01       6.615e-07          0.8955
 183       2.250e-02       5.600e-01       3.319e-07          2.1215
Strip 23
 184       2.325e-01       6.133e-01       6.956e-09          0.0618
 185       2.025e-01       6.133e-01       1.310e-08          0.0998
 186       1.725e-01       6.133e-01       9.197e-08          0.1388
 187       1.425e-01       6.133e-01       1.051e-06          0.1872
 188       1.125e-01       6.133e-01       3.147e-06          0.2560
 189       8.250e-02       6.133e-01       3.276e-06          0.3701
 190       5.250e-02       6.133e-01       6.615e-07          0.6172
 191       2.250e-02       6.133e-01       3.319e-07          1.6355
Strip 24
 192       0.000e+00       0.000e+00       0.000e+00         -3.5012
 193       0.000e+00       0.000e+00       0.000e+00         -5.6535
 194       0.000e+00       0.000e+00       0.000e+00         -7.8586
 195       0.000e+00       0.000e+00       0.000e+00        -10.6027
 196       0.000e+00       0.000e+00       0.000e+00        -14.4970
 197       0.000e+00       0.000e+00       0.000e+00        -20.9561
 198       0.000e+00       0.000e+00       0.000e+00        -34.9496
 199       0.000e+00       0.000e+00       0.000e+00        -92.6167










