XFLR5 v6.02 Beta

NAC642A015 Wing
T1-54.4 m/s-VLM1-x0.000mm
QInf  =   54.400000 m/s
Alpha =    5.000000
Beta  =    0.000°
Phi   =    0.000°
Ctrl  =   18.000
CL    =    0.361086
Cy    =    0.000000
Cd    =    0.014285     ICd   =    0.007594     PCd   =    0.006691
Cl   = -3.78855e-19
Cm   =  -0.0858949
ICn   =   -0.000000     PCn   =   -0.000000 
XCP   =    0.057309     YCP   =    0.000000 
XNP   =    0.000000
Bend. =   26.251239

NAC642A015 Wing
  y-span        Chord      Ai         Cl        PCd          ICd        CmGeom      CmAirf      XTrtop    XTrBot      XCP       BM
   -0.6133     0.2400    -3.676    0.186678    0.006461    0.006030   -0.037790    0.008965     0.6134    0.6954    0.2021    0.0000
   -0.5600     0.2400    -3.322    0.263555    0.006528    0.007687   -0.057597    0.008376     0.5870    0.7143    0.2183    0.2314
   -0.5067     0.2400    -3.016    0.310919    0.006575    0.008230   -0.070910    0.006883     0.5682    0.7266    0.2279    0.7894
   -0.4533     0.2400    -2.760    0.343326    0.006616    0.008311   -0.080333    0.005534     0.5549    0.7350    0.2339    1.7324
   -0.4000     0.2400    -2.550    0.366611    0.006673    0.008195   -0.087180    0.004481     0.5429    0.7411    0.2378    3.1004
   -0.3467     0.2400    -2.380    0.383787    0.006715    0.008005   -0.092237    0.003694     0.5341    0.7457    0.2404    4.9221
   -0.2933     0.2400    -2.245    0.396612    0.006747    0.007801   -0.096001    0.003114     0.5275    0.7491    0.2421    7.2186
   -0.2400     0.2400    -2.140    0.406179    0.006771    0.007613   -0.098797    0.002693     0.5225    0.7517    0.2434   10.0057
   -0.1867     0.2400    -2.060    0.413194    0.006788    0.007456   -0.100839    0.002392     0.5188    0.7536    0.2442   13.2952
   -0.1333     0.2400    -2.003    0.418121    0.006800    0.007335   -0.102267    0.002185     0.5163    0.7549    0.2448   17.0956
   -0.0800     0.2400    -1.966    0.421258    0.006808    0.007253   -0.103174    0.002056     0.5146    0.7557    0.2451   21.4130
   -0.0267     0.2400    -1.948    0.422785    0.006812    0.007212   -0.103614    0.001994     0.5139    0.7561    0.2453   26.2512
    0.0267     0.2400    -1.948    0.422785    0.006812    0.007212   -0.103614    0.001994     0.5139    0.7561    0.2453   26.2512
    0.0800     0.2400    -1.966    0.421258    0.006808    0.007253   -0.103174    0.002056     0.5146    0.7557    0.2451   21.4130
    0.1333     0.2400    -2.003    0.418121    0.006800    0.007335   -0.102267    0.002185     0.5163    0.7549    0.2448   17.0956
    0.1867     0.2400    -2.060    0.413194    0.006788    0.007456   -0.100839    0.002392     0.5188    0.7536    0.2442   13.2952
    0.2400     0.2400    -2.140    0.406179    0.006771    0.007613   -0.098797    0.002693     0.5225    0.7517    0.2434   10.0057
    0.2933     0.2400    -2.245    0.396612    0.006747    0.007801   -0.096001    0.003114     0.5275    0.7491    0.2421    7.2186
    0.3467     0.2400    -2.380    0.383787    0.006715    0.008005   -0.092237    0.003694     0.5341    0.7457    0.2404    4.9221
    0.4000     0.2400    -2.550    0.366611    0.006673    0.008195   -0.087180    0.004481     0.5429    0.7411    0.2378    3.1004
    0.4533     0.2400    -2.760    0.343326    0.006616    0.008311   -0.080333    0.005534     0.5549    0.7350    0.2339    1.7324
    0.5067     0.2400    -3.016    0.310919    0.006575    0.008230   -0.070910    0.006883     0.5682    0.7266    0.2279    0.7894
    0.5600     0.2400    -3.322    0.263555    0.006528    0.007687   -0.057597    0.008376     0.5870    0.7143    0.2183    0.2314
    0.6133     0.2400    -3.676    0.186678    0.006461    0.006030   -0.037790    0.008965     0.6134    0.6954    0.2021    0.0000


Wing Cp Coefficients
 Panel     CtrlPt.x        CtrlPt.y        CtrlPt.z             Cp
NAC642A015 WingCp Coefficients
Strip 1
   8       2.325e-01      -5.600e-01       6.956e-09          0.0421
   9       2.025e-01      -5.600e-01       1.310e-08          0.0692
  10       1.725e-01      -5.600e-01       9.197e-08          0.0970
  11       1.425e-01      -5.600e-01       1.051e-06          0.1313
  12       1.125e-01      -5.600e-01       3.147e-06          0.1786
  13       8.250e-02      -5.600e-01       3.276e-06          0.2522
  14       5.250e-02      -5.600e-01       6.615e-07          0.3980
  15       2.250e-02      -5.600e-01       3.319e-07          0.9428
Strip 2
  16       2.325e-01      -5.067e-01       6.956e-09          0.0532
  17       2.025e-01      -5.067e-01       1.310e-08          0.0876
  18       1.725e-01      -5.067e-01       9.197e-08          0.1227
  19       1.425e-01      -5.067e-01       1.051e-06          0.1649
  20       1.125e-01      -5.067e-01       3.147e-06          0.2213
  21       8.250e-02      -5.067e-01       3.276e-06          0.3062
  22       5.250e-02      -5.067e-01       6.615e-07          0.4682
  23       2.250e-02      -5.067e-01       3.319e-07          1.0652
Strip 3
  24       2.325e-01      -4.533e-01       6.956e-09          0.0617
  25       2.025e-01      -4.533e-01       1.310e-08          0.1015
  26       1.725e-01      -4.533e-01       9.197e-08          0.1415
  27       1.425e-01      -4.533e-01       1.051e-06          0.1888
  28       1.125e-01      -4.533e-01       3.147e-06          0.2508
  29       8.250e-02      -4.533e-01       3.276e-06          0.3422
  30       5.250e-02      -4.533e-01       6.615e-07          0.5141
  31       2.250e-02      -4.533e-01       3.319e-07          1.1471
Strip 4
  32       2.325e-01      -4.000e-01       6.956e-09          0.0682
  33       2.025e-01      -4.000e-01       1.310e-08          0.1118
  34       1.725e-01      -4.000e-01       9.197e-08          0.1553
  35       1.425e-01      -4.000e-01       1.051e-06          0.2061
  36       1.125e-01      -4.000e-01       3.147e-06          0.2717
  37       8.250e-02      -4.000e-01       3.276e-06          0.3676
  38       5.250e-02      -4.000e-01       6.615e-07          0.5465
  39       2.250e-02      -4.000e-01       3.319e-07          1.2059
Strip 5
  40       2.325e-01      -3.467e-01       6.956e-09          0.0731
  41       2.025e-01      -3.467e-01       1.310e-08          0.1196
  42       1.725e-01      -3.467e-01       9.197e-08          0.1656
  43       1.425e-01      -3.467e-01       1.051e-06          0.2188
  44       1.125e-01      -3.467e-01       3.147e-06          0.2870
  45       8.250e-02      -3.467e-01       3.276e-06          0.3860
  46       5.250e-02      -3.467e-01       6.615e-07          0.5701
  47       2.250e-02      -3.467e-01       3.319e-07          1.2496
Strip 6
  48       2.325e-01      -2.933e-01       6.956e-09          0.0768
  49       2.025e-01      -2.933e-01       1.310e-08          0.1254
  50       1.725e-01      -2.933e-01       9.197e-08          0.1732
  51       1.425e-01      -2.933e-01       1.051e-06          0.2282
  52       1.125e-01      -2.933e-01       3.147e-06          0.2983
  53       8.250e-02      -2.933e-01       3.276e-06          0.3996
  54       5.250e-02      -2.933e-01       6.615e-07          0.5877
  55       2.250e-02      -2.933e-01       3.319e-07          1.2824
Strip 7
  56       2.325e-01      -2.400e-01       6.956e-09          0.0796
  57       2.025e-01      -2.400e-01       1.310e-08          0.1298
  58       1.725e-01      -2.400e-01       9.197e-08          0.1789
  59       1.425e-01      -2.400e-01       1.051e-06          0.2352
  60       1.125e-01      -2.400e-01       3.147e-06          0.3066
  61       8.250e-02      -2.400e-01       3.276e-06          0.4097
  62       5.250e-02      -2.400e-01       6.615e-07          0.6008
  63       2.250e-02      -2.400e-01       3.319e-07          1.3071
Strip 8
  64       2.325e-01      -1.867e-01       6.956e-09          0.0816
  65       2.025e-01      -1.867e-01       1.310e-08          0.1329
  66       1.725e-01      -1.867e-01       9.197e-08          0.1831
  67       1.425e-01      -1.867e-01       1.051e-06          0.2403
  68       1.125e-01      -1.867e-01       3.147e-06          0.3127
  69       8.250e-02      -1.867e-01       3.276e-06          0.4171
  70       5.250e-02      -1.867e-01       6.615e-07          0.6104
  71       2.250e-02      -1.867e-01       3.319e-07          1.3253
Strip 9
  72       2.325e-01      -1.333e-01       6.956e-09          0.0830
  73       2.025e-01      -1.333e-01       1.310e-08          0.1351
  74       1.725e-01      -1.333e-01       9.197e-08          0.1860
  75       1.425e-01      -1.333e-01       1.051e-06          0.2438
  76       1.125e-01      -1.333e-01       3.147e-06          0.3170
  77       8.250e-02      -1.333e-01       3.276e-06          0.4222
  78       5.250e-02      -1.333e-01       6.615e-07          0.6172
  79       2.250e-02      -1.333e-01       3.319e-07          1.3382
Strip 10
  80       2.325e-01      -8.000e-02       6.956e-09          0.0839
  81       2.025e-01      -8.000e-02       1.310e-08          0.1365
  82       1.725e-01      -8.000e-02       9.197e-08          0.1878
  83       1.425e-01      -8.000e-02       1.051e-06          0.2460
  84       1.125e-01      -8.000e-02       3.147e-06          0.3197
  85       8.250e-02      -8.000e-02       3.276e-06          0.4255
  86       5.250e-02      -8.000e-02       6.615e-07          0.6215
  87       2.250e-02      -8.000e-02       3.319e-07          1.3464
Strip 11
  88       2.325e-01      -2.667e-02       6.956e-09          0.0843
  89       2.025e-01      -2.667e-02       1.310e-08          0.1372
  90       1.725e-01      -2.667e-02       9.197e-08          0.1887
  91       1.425e-01      -2.667e-02       1.051e-06          0.2471
  92       1.125e-01      -2.667e-02       3.147e-06          0.3210
  93       8.250e-02      -2.667e-02       3.276e-06          0.4271
  94       5.250e-02      -2.667e-02       6.615e-07          0.6236
  95       2.250e-02      -2.667e-02       3.319e-07          1.3504
Strip 12
  96       2.325e-01       2.667e-02       6.956e-09          0.0843
  97       2.025e-01       2.667e-02       1.310e-08          0.1372
  98       1.725e-01       2.667e-02       9.197e-08          0.1887
  99       1.425e-01       2.667e-02       1.051e-06          0.2471
 100       1.125e-01       2.667e-02       3.147e-06          0.3210
 101       8.250e-02       2.667e-02       3.276e-06          0.4271
 102       5.250e-02       2.667e-02       6.615e-07          0.6236
 103       2.250e-02       2.667e-02       3.319e-07          1.3504
Strip 13
 104       2.325e-01       8.000e-02       6.956e-09          0.0839
 105       2.025e-01       8.000e-02       1.310e-08          0.1365
 106       1.725e-01       8.000e-02       9.197e-08          0.1878
 107       1.425e-01       8.000e-02       1.051e-06          0.2460
 108       1.125e-01       8.000e-02       3.147e-06          0.3197
 109       8.250e-02       8.000e-02       3.276e-06          0.4255
 110       5.250e-02       8.000e-02       6.615e-07          0.6215
 111       2.250e-02       8.000e-02       3.319e-07          1.3464
Strip 14
 112       2.325e-01       1.333e-01       6.956e-09          0.0830
 113       2.025e-01       1.333e-01       1.310e-08          0.1351
 114       1.725e-01       1.333e-01       9.197e-08          0.1860
 115       1.425e-01       1.333e-01       1.051e-06          0.2438
 116       1.125e-01       1.333e-01       3.147e-06          0.3170
 117       8.250e-02       1.333e-01       3.276e-06          0.4222
 118       5.250e-02       1.333e-01       6.615e-07          0.6172
 119       2.250e-02       1.333e-01       3.319e-07          1.3382
Strip 15
 120       2.325e-01       1.867e-01       6.956e-09          0.0816
 121       2.025e-01       1.867e-01       1.310e-08          0.1329
 122       1.725e-01       1.867e-01       9.197e-08          0.1831
 123       1.425e-01       1.867e-01       1.051e-06          0.2403
 124       1.125e-01       1.867e-01       3.147e-06          0.3127
 125       8.250e-02       1.867e-01       3.276e-06          0.4171
 126       5.250e-02       1.867e-01       6.615e-07          0.6104
 127       2.250e-02       1.867e-01       3.319e-07          1.3253
Strip 16
 128       2.325e-01       2.400e-01       6.956e-09          0.0796
 129       2.025e-01       2.400e-01       1.310e-08          0.1298
 130       1.725e-01       2.400e-01       9.197e-08          0.1789
 131       1.425e-01       2.400e-01       1.051e-06          0.2352
 132       1.125e-01       2.400e-01       3.147e-06          0.3066
 133       8.250e-02       2.400e-01       3.276e-06          0.4097
 134       5.250e-02       2.400e-01       6.615e-07          0.6008
 135       2.250e-02       2.400e-01       3.319e-07          1.3071
Strip 17
 136       2.325e-01       2.933e-01       6.956e-09          0.0768
 137       2.025e-01       2.933e-01       1.310e-08          0.1254
 138       1.725e-01       2.933e-01       9.197e-08          0.1732
 139       1.425e-01       2.933e-01       1.051e-06          0.2282
 140       1.125e-01       2.933e-01       3.147e-06          0.2983
 141       8.250e-02       2.933e-01       3.276e-06          0.3996
 142       5.250e-02       2.933e-01       6.615e-07          0.5877
 143       2.250e-02       2.933e-01       3.319e-07          1.2824
Strip 18
 144       2.325e-01       3.467e-01       6.956e-09          0.0731
 145       2.025e-01       3.467e-01       1.310e-08          0.1196
 146       1.725e-01       3.467e-01       9.197e-08          0.1656
 147       1.425e-01       3.467e-01       1.051e-06          0.2188
 148       1.125e-01       3.467e-01       3.147e-06          0.2870
 149       8.250e-02       3.467e-01       3.276e-06          0.3860
 150       5.250e-02       3.467e-01       6.615e-07          0.5701
 151       2.250e-02       3.467e-01       3.319e-07          1.2496
Strip 19
 152       2.325e-01       4.000e-01       6.956e-09          0.0682
 153       2.025e-01       4.000e-01       1.310e-08          0.1118
 154       1.725e-01       4.000e-01       9.197e-08          0.1553
 155       1.425e-01       4.000e-01       1.051e-06          0.2061
 156       1.125e-01       4.000e-01       3.147e-06          0.2717
 157       8.250e-02       4.000e-01       3.276e-06          0.3676
 158       5.250e-02       4.000e-01       6.615e-07          0.5465
 159       2.250e-02       4.000e-01       3.319e-07          1.2059
Strip 20
 160       2.325e-01       4.533e-01       6.956e-09          0.0617
 161       2.025e-01       4.533e-01       1.310e-08          0.1015
 162       1.725e-01       4.533e-01       9.197e-08          0.1415
 163       1.425e-01       4.533e-01       1.051e-06          0.1888
 164       1.125e-01       4.533e-01       3.147e-06          0.2508
 165       8.250e-02       4.533e-01       3.276e-06          0.3422
 166       5.250e-02       4.533e-01       6.615e-07          0.5141
 167       2.250e-02       4.533e-01       3.319e-07          1.1471
Strip 21
 168       2.325e-01       5.067e-01       6.956e-09          0.0532
 169       2.025e-01       5.067e-01       1.310e-08          0.0876
 170       1.725e-01       5.067e-01       9.197e-08          0.1227
 171       1.425e-01       5.067e-01       1.051e-06          0.1649
 172       1.125e-01       5.067e-01       3.147e-06          0.2213
 173       8.250e-02       5.067e-01       3.276e-06          0.3062
 174       5.250e-02       5.067e-01       6.615e-07          0.4682
 175       2.250e-02       5.067e-01       3.319e-07          1.0652
Strip 22
 176       2.325e-01       5.600e-01       6.956e-09          0.0421
 177       2.025e-01       5.600e-01       1.310e-08          0.0692
 178       1.725e-01       5.600e-01       9.197e-08          0.0970
 179       1.425e-01       5.600e-01       1.051e-06          0.1313
 180       1.125e-01       5.600e-01       3.147e-06          0.1786
 181       8.250e-02       5.600e-01       3.276e-06          0.2522
 182       5.250e-02       5.600e-01       6.615e-07          0.3980
 183       2.250e-02       5.600e-01       3.319e-07          0.9428
Strip 23
 184       2.325e-01       6.133e-01       6.956e-09          0.0275
 185       2.025e-01       6.133e-01       1.310e-08          0.0443
 186       1.725e-01       6.133e-01       9.197e-08          0.0616
 187       1.425e-01       6.133e-01       1.051e-06          0.0833
 188       1.125e-01       6.133e-01       3.147e-06          0.1140
 189       8.250e-02       6.133e-01       3.276e-06          0.1644
 190       5.250e-02       6.133e-01       6.615e-07          0.2743
 191       2.250e-02       6.133e-01       3.319e-07          0.7268
Strip 24
 192       0.000e+00       0.000e+00       0.000e+00         -1.6421
 193       0.000e+00       0.000e+00       0.000e+00         -2.6498
 194       0.000e+00       0.000e+00       0.000e+00         -3.6825
 195       0.000e+00       0.000e+00       0.000e+00         -4.9792
 196       0.000e+00       0.000e+00       0.000e+00         -6.8141
 197       0.000e+00       0.000e+00       0.000e+00         -9.8253
 198       0.000e+00       0.000e+00       0.000e+00        -16.3946
 199       0.000e+00       0.000e+00       0.000e+00        -43.4462










