XFLR5 v6.02 Beta

NAC642A015 Wing
T1-54.4 m/s-VLM1-x0.000mm
QInf  =   54.400000 m/s
Alpha =   13.000000
Beta  =    0.000°
Phi   =    0.000°
Ctrl  =   18.000
CL    =    0.912518
Cy    =    0.000000
Cd    =    0.066628     ICd   =    0.049476     PCd   =    0.017152
Cl   = -2.77149e-17
Cm   =   -0.216822
ICn   =    0.000000     PCn   =   -0.000000 
XCP   =    0.058526     YCP   =    0.000000 
XNP   =    0.000000
Bend. =   66.268059

NAC642A015 Wing
  y-span        Chord      Ai         Cl        PCd          ICd        CmGeom      CmAirf      XTrtop    XTrBot      XCP       BM
   -0.6133     0.2400    -9.211    0.466387    0.006997    0.039286   -0.095390    0.022637     0.4770    0.7683    0.2021    0.0000
   -0.5600     0.2400    -8.335    0.660563    0.011242    0.050082   -0.145389    0.021152     0.0541    0.8532    0.2182    0.5842
   -0.5067     0.2400    -7.577    0.781416    0.012991    0.053619   -0.178995    0.017383     0.0268    0.9372    0.2279    1.9927
   -0.4533     0.2400    -6.939    0.864849    0.014386    0.054148   -0.202782    0.013979     0.0217    0.9794    0.2339    4.3732
   -0.4000     0.2400    -6.414    0.925242    0.015564    0.053390   -0.220066    0.011321     0.0191    0.9962    0.2378    7.8266
   -0.3467     0.2400    -5.990    0.970059    0.016821    0.052152   -0.232831    0.009334     0.0177    1.0000    0.2404   12.4253
   -0.2933     0.2400    -5.652    1.003679    0.018250    0.050826   -0.242334    0.007871     0.0168    1.0000    0.2421   18.2226
   -0.2400     0.2400    -5.388    1.028850    0.019494    0.049603   -0.249392    0.006807     0.0162    1.0000    0.2434   25.2583
   -0.1867     0.2400    -5.189    1.047359    0.020809    0.048576   -0.254545    0.006047     0.0158    1.0000    0.2442   33.5621
   -0.1333     0.2400    -5.046    1.060385    0.022208    0.047786   -0.258151    0.005525     0.0156    1.0000    0.2448   43.1557
   -0.0800     0.2400    -4.953    1.068690    0.023294    0.047254   -0.260441    0.005199     0.0154    1.0000    0.2451   54.0545
   -0.0267     0.2400    -4.908    1.072735    0.023772    0.046986   -0.261553    0.005042     0.0153    1.0000    0.2453   66.2681
    0.0267     0.2400    -4.908    1.072735    0.023772    0.046986   -0.261553    0.005042     0.0153    1.0000    0.2453   66.2681
    0.0800     0.2400    -4.953    1.068690    0.023294    0.047254   -0.260441    0.005199     0.0154    1.0000    0.2451   54.0545
    0.1333     0.2400    -5.046    1.060385    0.022208    0.047786   -0.258151    0.005525     0.0156    1.0000    0.2448   43.1557
    0.1867     0.2400    -5.189    1.047359    0.020809    0.048576   -0.254545    0.006047     0.0158    1.0000    0.2442   33.5621
    0.2400     0.2400    -5.388    1.028850    0.019494    0.049603   -0.249392    0.006807     0.0162    1.0000    0.2434   25.2583
    0.2933     0.2400    -5.652    1.003679    0.018250    0.050826   -0.242334    0.007871     0.0168    1.0000    0.2421   18.2226
    0.3467     0.2400    -5.990    0.970059    0.016821    0.052152   -0.232831    0.009334     0.0177    1.0000    0.2404   12.4253
    0.4000     0.2400    -6.414    0.925242    0.015564    0.053390   -0.220066    0.011321     0.0191    0.9962    0.2378    7.8266
    0.4533     0.2400    -6.939    0.864849    0.014386    0.054148   -0.202782    0.013979     0.0217    0.9794    0.2339    4.3732
    0.5067     0.2400    -7.577    0.781416    0.012991    0.053619   -0.178995    0.017383     0.0268    0.9372    0.2279    1.9927
    0.5600     0.2400    -8.335    0.660563    0.011242    0.050082   -0.145389    0.021152     0.0541    0.8532    0.2182    0.5842
    0.6133     0.2400    -9.211    0.466387    0.006997    0.039286   -0.095390    0.022637     0.4770    0.7683    0.2021    0.0000


Wing Cp Coefficients
 Panel     CtrlPt.x        CtrlPt.y        CtrlPt.z             Cp
NAC642A015 WingCp Coefficients
Strip 1
   8       2.325e-01      -5.600e-01       6.956e-09          0.1064
   9       2.025e-01      -5.600e-01       1.310e-08          0.1748
  10       1.725e-01      -5.600e-01       9.197e-08          0.2451
  11       1.425e-01      -5.600e-01       1.051e-06          0.3312
  12       1.125e-01      -5.600e-01       3.147e-06          0.4500
  13       8.250e-02      -5.600e-01       3.276e-06          0.6369
  14       5.250e-02      -5.600e-01       6.615e-07          1.0047
  15       2.250e-02      -5.600e-01       3.319e-07          2.3802
Strip 2
  16       2.325e-01      -5.067e-01       6.956e-09          0.1344
  17       2.025e-01      -5.067e-01       1.310e-08          0.2213
  18       1.725e-01      -5.067e-01       9.197e-08          0.3099
  19       1.425e-01      -5.067e-01       1.051e-06          0.4160
  20       1.125e-01      -5.067e-01       3.147e-06          0.5580
  21       8.250e-02      -5.067e-01       3.276e-06          0.7734
  22       5.250e-02      -5.067e-01       6.615e-07          1.1819
  23       2.250e-02      -5.067e-01       3.319e-07          2.6892
Strip 3
  24       2.325e-01      -4.533e-01       6.956e-09          0.1559
  25       2.025e-01      -4.533e-01       1.310e-08          0.2562
  26       1.725e-01      -4.533e-01       9.197e-08          0.3573
  27       1.425e-01      -4.533e-01       1.051e-06          0.4763
  28       1.125e-01      -4.533e-01       3.147e-06          0.6323
  29       8.250e-02      -4.533e-01       3.276e-06          0.8643
  30       5.250e-02      -4.533e-01       6.615e-07          1.2979
  31       2.250e-02      -4.533e-01       3.319e-07          2.8961
Strip 4
  32       2.325e-01      -4.000e-01       6.956e-09          0.1722
  33       2.025e-01      -4.000e-01       1.310e-08          0.2824
  34       1.725e-01      -4.000e-01       9.197e-08          0.3923
  35       1.425e-01      -4.000e-01       1.051e-06          0.5200
  36       1.125e-01      -4.000e-01       3.147e-06          0.6852
  37       8.250e-02      -4.000e-01       3.276e-06          0.9282
  38       5.250e-02      -4.000e-01       6.615e-07          1.3796
  39       2.250e-02      -4.000e-01       3.319e-07          3.0445
Strip 5
  40       2.325e-01      -3.467e-01       6.956e-09          0.1846
  41       2.025e-01      -3.467e-01       1.310e-08          0.3021
  42       1.725e-01      -3.467e-01       9.197e-08          0.4182
  43       1.425e-01      -3.467e-01       1.051e-06          0.5520
  44       1.125e-01      -3.467e-01       3.147e-06          0.7237
  45       8.250e-02      -3.467e-01       3.276e-06          0.9747
  46       5.250e-02      -3.467e-01       6.615e-07          1.4393
  47       2.250e-02      -3.467e-01       3.319e-07          3.1547
Strip 6
  48       2.325e-01      -2.933e-01       6.956e-09          0.1939
  49       2.025e-01      -2.933e-01       1.310e-08          0.3168
  50       1.725e-01      -2.933e-01       9.197e-08          0.4376
  51       1.425e-01      -2.933e-01       1.051e-06          0.5758
  52       1.125e-01      -2.933e-01       3.147e-06          0.7522
  53       8.250e-02      -2.933e-01       3.276e-06          1.0091
  54       5.250e-02      -2.933e-01       6.615e-07          1.4837
  55       2.250e-02      -2.933e-01       3.319e-07          3.2376
Strip 7
  56       2.325e-01      -2.400e-01       6.956e-09          0.2009
  57       2.025e-01      -2.400e-01       1.310e-08          0.3277
  58       1.725e-01      -2.400e-01       9.197e-08          0.4519
  59       1.425e-01      -2.400e-01       1.051e-06          0.5934
  60       1.125e-01      -2.400e-01       3.147e-06          0.7733
  61       8.250e-02      -2.400e-01       3.276e-06          1.0346
  62       5.250e-02      -2.400e-01       6.615e-07          1.5168
  63       2.250e-02      -2.400e-01       3.319e-07          3.2999
Strip 8
  64       2.325e-01      -1.867e-01       6.956e-09          0.2060
  65       2.025e-01      -1.867e-01       1.310e-08          0.3357
  66       1.725e-01      -1.867e-01       9.197e-08          0.4623
  67       1.425e-01      -1.867e-01       1.051e-06          0.6062
  68       1.125e-01      -1.867e-01       3.147e-06          0.7887
  69       8.250e-02      -1.867e-01       3.276e-06          1.0532
  70       5.250e-02      -1.867e-01       6.615e-07          1.5410
  71       2.250e-02      -1.867e-01       3.319e-07          3.3459
Strip 9
  72       2.325e-01      -1.333e-01       6.956e-09          0.2096
  73       2.025e-01      -1.333e-01       1.310e-08          0.3413
  74       1.725e-01      -1.333e-01       9.197e-08          0.4696
  75       1.425e-01      -1.333e-01       1.051e-06          0.6151
  76       1.125e-01      -1.333e-01       3.147e-06          0.7994
  77       8.250e-02      -1.333e-01       3.276e-06          1.0662
  78       5.250e-02      -1.333e-01       6.615e-07          1.5581
  79       2.250e-02      -1.333e-01       3.319e-07          3.3783
Strip 10
  80       2.325e-01      -8.000e-02       6.956e-09          0.2118
  81       2.025e-01      -8.000e-02       1.310e-08          0.3448
  82       1.725e-01      -8.000e-02       9.197e-08          0.4742
  83       1.425e-01      -8.000e-02       1.051e-06          0.6208
  84       1.125e-01      -8.000e-02       3.147e-06          0.8062
  85       8.250e-02      -8.000e-02       3.276e-06          1.0745
  86       5.250e-02      -8.000e-02       6.615e-07          1.5689
  87       2.250e-02      -8.000e-02       3.319e-07          3.3991
Strip 11
  88       2.325e-01      -2.667e-02       6.956e-09          0.2129
  89       2.025e-01      -2.667e-02       1.310e-08          0.3466
  90       1.725e-01      -2.667e-02       9.197e-08          0.4765
  91       1.425e-01      -2.667e-02       1.051e-06          0.6236
  92       1.125e-01      -2.667e-02       3.147e-06          0.8095
  93       8.250e-02      -2.667e-02       3.276e-06          1.0785
  94       5.250e-02      -2.667e-02       6.615e-07          1.5742
  95       2.250e-02      -2.667e-02       3.319e-07          3.4092
Strip 12
  96       2.325e-01       2.667e-02       6.956e-09          0.2129
  97       2.025e-01       2.667e-02       1.310e-08          0.3466
  98       1.725e-01       2.667e-02       9.197e-08          0.4765
  99       1.425e-01       2.667e-02       1.051e-06          0.6236
 100       1.125e-01       2.667e-02       3.147e-06          0.8095
 101       8.250e-02       2.667e-02       3.276e-06          1.0785
 102       5.250e-02       2.667e-02       6.615e-07          1.5742
 103       2.250e-02       2.667e-02       3.319e-07          3.4092
Strip 13
 104       2.325e-01       8.000e-02       6.956e-09          0.2118
 105       2.025e-01       8.000e-02       1.310e-08          0.3448
 106       1.725e-01       8.000e-02       9.197e-08          0.4742
 107       1.425e-01       8.000e-02       1.051e-06          0.6208
 108       1.125e-01       8.000e-02       3.147e-06          0.8062
 109       8.250e-02       8.000e-02       3.276e-06          1.0745
 110       5.250e-02       8.000e-02       6.615e-07          1.5689
 111       2.250e-02       8.000e-02       3.319e-07          3.3991
Strip 14
 112       2.325e-01       1.333e-01       6.956e-09          0.2096
 113       2.025e-01       1.333e-01       1.310e-08          0.3413
 114       1.725e-01       1.333e-01       9.197e-08          0.4696
 115       1.425e-01       1.333e-01       1.051e-06          0.6151
 116       1.125e-01       1.333e-01       3.147e-06          0.7994
 117       8.250e-02       1.333e-01       3.276e-06          1.0662
 118       5.250e-02       1.333e-01       6.615e-07          1.5581
 119       2.250e-02       1.333e-01       3.319e-07          3.3783
Strip 15
 120       2.325e-01       1.867e-01       6.956e-09          0.2060
 121       2.025e-01       1.867e-01       1.310e-08          0.3357
 122       1.725e-01       1.867e-01       9.197e-08          0.4623
 123       1.425e-01       1.867e-01       1.051e-06          0.6062
 124       1.125e-01       1.867e-01       3.147e-06          0.7887
 125       8.250e-02       1.867e-01       3.276e-06          1.0532
 126       5.250e-02       1.867e-01       6.615e-07          1.5410
 127       2.250e-02       1.867e-01       3.319e-07          3.3459
Strip 16
 128       2.325e-01       2.400e-01       6.956e-09          0.2009
 129       2.025e-01       2.400e-01       1.310e-08          0.3277
 130       1.725e-01       2.400e-01       9.197e-08          0.4519
 131       1.425e-01       2.400e-01       1.051e-06          0.5934
 132       1.125e-01       2.400e-01       3.147e-06          0.7733
 133       8.250e-02       2.400e-01       3.276e-06          1.0346
 134       5.250e-02       2.400e-01       6.615e-07          1.5168
 135       2.250e-02       2.400e-01       3.319e-07          3.2999
Strip 17
 136       2.325e-01       2.933e-01       6.956e-09          0.1939
 137       2.025e-01       2.933e-01       1.310e-08          0.3168
 138       1.725e-01       2.933e-01       9.197e-08          0.4376
 139       1.425e-01       2.933e-01       1.051e-06          0.5758
 140       1.125e-01       2.933e-01       3.147e-06          0.7522
 141       8.250e-02       2.933e-01       3.276e-06          1.0091
 142       5.250e-02       2.933e-01       6.615e-07          1.4837
 143       2.250e-02       2.933e-01       3.319e-07          3.2376
Strip 18
 144       2.325e-01       3.467e-01       6.956e-09          0.1846
 145       2.025e-01       3.467e-01       1.310e-08          0.3021
 146       1.725e-01       3.467e-01       9.197e-08          0.4182
 147       1.425e-01       3.467e-01       1.051e-06          0.5520
 148       1.125e-01       3.467e-01       3.147e-06          0.7237
 149       8.250e-02       3.467e-01       3.276e-06          0.9747
 150       5.250e-02       3.467e-01       6.615e-07          1.4393
 151       2.250e-02       3.467e-01       3.319e-07          3.1547
Strip 19
 152       2.325e-01       4.000e-01       6.956e-09          0.1722
 153       2.025e-01       4.000e-01       1.310e-08          0.2824
 154       1.725e-01       4.000e-01       9.197e-08          0.3923
 155       1.425e-01       4.000e-01       1.051e-06          0.5200
 156       1.125e-01       4.000e-01       3.147e-06          0.6852
 157       8.250e-02       4.000e-01       3.276e-06          0.9282
 158       5.250e-02       4.000e-01       6.615e-07          1.3796
 159       2.250e-02       4.000e-01       3.319e-07          3.0445
Strip 20
 160       2.325e-01       4.533e-01       6.956e-09          0.1559
 161       2.025e-01       4.533e-01       1.310e-08          0.2562
 162       1.725e-01       4.533e-01       9.197e-08          0.3573
 163       1.425e-01       4.533e-01       1.051e-06          0.4763
 164       1.125e-01       4.533e-01       3.147e-06          0.6323
 165       8.250e-02       4.533e-01       3.276e-06          0.8643
 166       5.250e-02       4.533e-01       6.615e-07          1.2979
 167       2.250e-02       4.533e-01       3.319e-07          2.8961
Strip 21
 168       2.325e-01       5.067e-01       6.956e-09          0.1344
 169       2.025e-01       5.067e-01       1.310e-08          0.2213
 170       1.725e-01       5.067e-01       9.197e-08          0.3099
 171       1.425e-01       5.067e-01       1.051e-06          0.4160
 172       1.125e-01       5.067e-01       3.147e-06          0.5580
 173       8.250e-02       5.067e-01       3.276e-06          0.7734
 174       5.250e-02       5.067e-01       6.615e-07          1.1819
 175       2.250e-02       5.067e-01       3.319e-07          2.6892
Strip 22
 176       2.325e-01       5.600e-01       6.956e-09          0.1064
 177       2.025e-01       5.600e-01       1.310e-08          0.1748
 178       1.725e-01       5.600e-01       9.197e-08          0.2451
 179       1.425e-01       5.600e-01       1.051e-06          0.3312
 180       1.125e-01       5.600e-01       3.147e-06          0.4500
 181       8.250e-02       5.600e-01       3.276e-06          0.6369
 182       5.250e-02       5.600e-01       6.615e-07          1.0047
 183       2.250e-02       5.600e-01       3.319e-07          2.3802
Strip 23
 184       2.325e-01       6.133e-01       6.956e-09          0.0694
 185       2.025e-01       6.133e-01       1.310e-08          0.1120
 186       1.725e-01       6.133e-01       9.197e-08          0.1557
 187       1.425e-01       6.133e-01       1.051e-06          0.2100
 188       1.125e-01       6.133e-01       3.147e-06          0.2872
 189       8.250e-02       6.133e-01       3.276e-06          0.4152
 190       5.250e-02       6.133e-01       6.615e-07          0.6924
 191       2.250e-02       6.133e-01       3.319e-07          1.8349
Strip 24
 192       0.000e+00       0.000e+00       0.000e+00         -3.9080
 193       0.000e+00       0.000e+00       0.000e+00         -6.3109
 194       0.000e+00       0.000e+00       0.000e+00         -8.7725
 195       0.000e+00       0.000e+00       0.000e+00        -11.8333
 196       0.000e+00       0.000e+00       0.000e+00        -16.1782
 197       0.000e+00       0.000e+00       0.000e+00        -23.3921
 198       0.000e+00       0.000e+00       0.000e+00        -39.0102
 199       0.000e+00       0.000e+00       0.000e+00       -103.3773










