XFLR5 v6.02 Beta

NAC642A015 Wing
T1-54.4 m/s-VLM1-x0.000mm
QInf  =   54.400000 m/s
Alpha =   -3.000000
Beta  =    0.000°
Phi   =    0.000°
Ctrl  =   18.000
CL    =   -0.217300
Cy    =    0.000000
Cd    =    0.009237     ICd   =    0.002744     PCd   =    0.006493
Cl   =  2.9922e-18
Cm   =   0.0516865
ICn   =    0.000000     PCn   =    0.000000 
XCP   =    0.057164     YCP   =   -0.000000 
XNP   =    0.000000
Bend. =  -15.799372

NAC642A015 Wing
  y-span        Chord      Ai         Cl        PCd          ICd        CmGeom      CmAirf      XTrtop    XTrBot      XCP       BM
   -0.6133     0.2400     2.214   -0.112485    0.006448    0.002179    0.022738   -0.005402     0.6776    0.6311    0.2020    0.0000
   -0.5600     0.2400     2.000   -0.158751    0.006467    0.002778    0.034657   -0.005050     0.6890    0.6206    0.2182   -0.1393
   -0.5067     0.2400     1.816   -0.187224    0.006475    0.002974    0.042668   -0.004152     0.6959    0.6129    0.2278   -0.4751
   -0.4533     0.2400     1.662   -0.206686    0.006480    0.003003    0.048339   -0.003340     0.7006    0.6070    0.2338   -1.0426
   -0.4000     0.2400     1.535   -0.220658    0.006484    0.002961    0.052459   -0.002707     0.7040    0.6028    0.2377   -1.8660
   -0.3467     0.2400     1.433   -0.230957    0.006489    0.002892    0.055503   -0.002233     0.7065    0.5994    0.2403   -2.9624
   -0.2933     0.2400     1.352   -0.238644    0.006499    0.002819    0.057768   -0.001885     0.7083    0.5964    0.2421   -4.3446
   -0.2400     0.2400     1.288   -0.244375    0.006507    0.002751    0.059451   -0.001631     0.7097    0.5942    0.2433   -6.0220
   -0.1867     0.2400     1.240   -0.248576    0.006512    0.002694    0.060680   -0.001450     0.7107    0.5926    0.2442   -8.0017
   -0.1333     0.2400     1.206   -0.251526    0.006516    0.002650    0.061539   -0.001325     0.7114    0.5914    0.2447   -10.2890
   -0.0800     0.2400     1.184   -0.253404    0.006518    0.002621    0.062085   -0.001248     0.7118    0.5907    0.2451   -12.8875
   -0.0267     0.2400     1.173   -0.254318    0.006520    0.002606    0.062350   -0.001210     0.7121    0.5904    0.2452   -15.7994
    0.0267     0.2400     1.173   -0.254318    0.006520    0.002606    0.062350   -0.001210     0.7121    0.5904    0.2452   -15.7994
    0.0800     0.2400     1.184   -0.253404    0.006518    0.002621    0.062085   -0.001248     0.7118    0.5907    0.2451   -12.8875
    0.1333     0.2400     1.206   -0.251526    0.006516    0.002650    0.061539   -0.001325     0.7114    0.5914    0.2447   -10.2890
    0.1867     0.2400     1.240   -0.248576    0.006512    0.002694    0.060680   -0.001450     0.7107    0.5926    0.2442   -8.0017
    0.2400     0.2400     1.288   -0.244375    0.006507    0.002751    0.059451   -0.001631     0.7097    0.5942    0.2433   -6.0220
    0.2933     0.2400     1.352   -0.238644    0.006499    0.002819    0.057768   -0.001885     0.7083    0.5964    0.2421   -4.3446
    0.3467     0.2400     1.433   -0.230957    0.006489    0.002892    0.055503   -0.002233     0.7065    0.5994    0.2403   -2.9624
    0.4000     0.2400     1.535   -0.220658    0.006484    0.002961    0.052459   -0.002707     0.7040    0.6028    0.2377   -1.8660
    0.4533     0.2400     1.662   -0.206686    0.006480    0.003003    0.048339   -0.003340     0.7006    0.6070    0.2338   -1.0426
    0.5067     0.2400     1.816   -0.187224    0.006475    0.002974    0.042668   -0.004152     0.6959    0.6129    0.2278   -0.4751
    0.5600     0.2400     2.000   -0.158751    0.006467    0.002778    0.034657   -0.005050     0.6890    0.6206    0.2182   -0.1393
    0.6133     0.2400     2.214   -0.112485    0.006448    0.002179    0.022738   -0.005402     0.6776    0.6311    0.2020    0.0000


Wing Cp Coefficients
 Panel     CtrlPt.x        CtrlPt.y        CtrlPt.z             Cp
NAC642A015 WingCp Coefficients
Strip 1
   8       2.325e-01      -5.600e-01       6.956e-09         -0.0254
   9       2.025e-01      -5.600e-01       1.310e-08         -0.0418
  10       1.725e-01      -5.600e-01       9.197e-08         -0.0586
  11       1.425e-01      -5.600e-01       1.051e-06         -0.0787
  12       1.125e-01      -5.600e-01       3.147e-06         -0.1067
  13       8.250e-02      -5.600e-01       3.276e-06         -0.1521
  14       5.250e-02      -5.600e-01       6.615e-07         -0.2396
  15       2.250e-02      -5.600e-01       3.319e-07         -0.5677
Strip 2
  16       2.325e-01      -5.067e-01       6.956e-09         -0.0321
  17       2.025e-01      -5.067e-01       1.310e-08         -0.0529
  18       1.725e-01      -5.067e-01       9.197e-08         -0.0740
  19       1.425e-01      -5.067e-01       1.051e-06         -0.0989
  20       1.125e-01      -5.067e-01       3.147e-06         -0.1325
  21       8.250e-02      -5.067e-01       3.276e-06         -0.1846
  22       5.250e-02      -5.067e-01       6.615e-07         -0.2819
  23       2.250e-02      -5.067e-01       3.319e-07         -0.6413
Strip 3
  24       2.325e-01      -4.533e-01       6.956e-09         -0.0372
  25       2.025e-01      -4.533e-01       1.310e-08         -0.0612
  26       1.725e-01      -4.533e-01       9.197e-08         -0.0854
  27       1.425e-01      -4.533e-01       1.051e-06         -0.1133
  28       1.125e-01      -4.533e-01       3.147e-06         -0.1502
  29       8.250e-02      -4.533e-01       3.276e-06         -0.2063
  30       5.250e-02      -4.533e-01       6.615e-07         -0.3095
  31       2.250e-02      -4.533e-01       3.319e-07         -0.6907
Strip 4
  32       2.325e-01      -4.000e-01       6.956e-09         -0.0411
  33       2.025e-01      -4.000e-01       1.310e-08         -0.0674
  34       1.725e-01      -4.000e-01       9.197e-08         -0.0937
  35       1.425e-01      -4.000e-01       1.051e-06         -0.1237
  36       1.125e-01      -4.000e-01       3.147e-06         -0.1628
  37       8.250e-02      -4.000e-01       3.276e-06         -0.2215
  38       5.250e-02      -4.000e-01       6.615e-07         -0.3290
  39       2.250e-02      -4.000e-01       3.319e-07         -0.7261
Strip 5
  40       2.325e-01      -3.467e-01       6.956e-09         -0.0440
  41       2.025e-01      -3.467e-01       1.310e-08         -0.0721
  42       1.725e-01      -3.467e-01       9.197e-08         -0.0999
  43       1.425e-01      -3.467e-01       1.051e-06         -0.1314
  44       1.125e-01      -3.467e-01       3.147e-06         -0.1720
  45       8.250e-02      -3.467e-01       3.276e-06         -0.2326
  46       5.250e-02      -3.467e-01       6.615e-07         -0.3432
  47       2.250e-02      -3.467e-01       3.319e-07         -0.7523
Strip 6
  48       2.325e-01      -2.933e-01       6.956e-09         -0.0463
  49       2.025e-01      -2.933e-01       1.310e-08         -0.0756
  50       1.725e-01      -2.933e-01       9.197e-08         -0.1045
  51       1.425e-01      -2.933e-01       1.051e-06         -0.1370
  52       1.125e-01      -2.933e-01       3.147e-06         -0.1788
  53       8.250e-02      -2.933e-01       3.276e-06         -0.2408
  54       5.250e-02      -2.933e-01       6.615e-07         -0.3538
  55       2.250e-02      -2.933e-01       3.319e-07         -0.7721
Strip 7
  56       2.325e-01      -2.400e-01       6.956e-09         -0.0479
  57       2.025e-01      -2.400e-01       1.310e-08         -0.0782
  58       1.725e-01      -2.400e-01       9.197e-08         -0.1079
  59       1.425e-01      -2.400e-01       1.051e-06         -0.1412
  60       1.125e-01      -2.400e-01       3.147e-06         -0.1838
  61       8.250e-02      -2.400e-01       3.276e-06         -0.2469
  62       5.250e-02      -2.400e-01       6.615e-07         -0.3617
  63       2.250e-02      -2.400e-01       3.319e-07         -0.7869
Strip 8
  64       2.325e-01      -1.867e-01       6.956e-09         -0.0491
  65       2.025e-01      -1.867e-01       1.310e-08         -0.0801
  66       1.725e-01      -1.867e-01       9.197e-08         -0.1104
  67       1.425e-01      -1.867e-01       1.051e-06         -0.1443
  68       1.125e-01      -1.867e-01       3.147e-06         -0.1875
  69       8.250e-02      -1.867e-01       3.276e-06         -0.2513
  70       5.250e-02      -1.867e-01       6.615e-07         -0.3675
  71       2.250e-02      -1.867e-01       3.319e-07         -0.7979
Strip 9
  72       2.325e-01      -1.333e-01       6.956e-09         -0.0500
  73       2.025e-01      -1.333e-01       1.310e-08         -0.0815
  74       1.725e-01      -1.333e-01       9.197e-08         -0.1121
  75       1.425e-01      -1.333e-01       1.051e-06         -0.1464
  76       1.125e-01      -1.333e-01       3.147e-06         -0.1900
  77       8.250e-02      -1.333e-01       3.276e-06         -0.2544
  78       5.250e-02      -1.333e-01       6.615e-07         -0.3716
  79       2.250e-02      -1.333e-01       3.319e-07         -0.8056
Strip 10
  80       2.325e-01      -8.000e-02       6.956e-09         -0.0505
  81       2.025e-01      -8.000e-02       1.310e-08         -0.0823
  82       1.725e-01      -8.000e-02       9.197e-08         -0.1132
  83       1.425e-01      -8.000e-02       1.051e-06         -0.1478
  84       1.125e-01      -8.000e-02       3.147e-06         -0.1916
  85       8.250e-02      -8.000e-02       3.276e-06         -0.2564
  86       5.250e-02      -8.000e-02       6.615e-07         -0.3741
  87       2.250e-02      -8.000e-02       3.319e-07         -0.8106
Strip 11
  88       2.325e-01      -2.667e-02       6.956e-09         -0.0508
  89       2.025e-01      -2.667e-02       1.310e-08         -0.0827
  90       1.725e-01      -2.667e-02       9.197e-08         -0.1138
  91       1.425e-01      -2.667e-02       1.051e-06         -0.1484
  92       1.125e-01      -2.667e-02       3.147e-06         -0.1924
  93       8.250e-02      -2.667e-02       3.276e-06         -0.2574
  94       5.250e-02      -2.667e-02       6.615e-07         -0.3754
  95       2.250e-02      -2.667e-02       3.319e-07         -0.8130
Strip 12
  96       2.325e-01       2.667e-02       6.956e-09         -0.0508
  97       2.025e-01       2.667e-02       1.310e-08         -0.0827
  98       1.725e-01       2.667e-02       9.197e-08         -0.1138
  99       1.425e-01       2.667e-02       1.051e-06         -0.1484
 100       1.125e-01       2.667e-02       3.147e-06         -0.1924
 101       8.250e-02       2.667e-02       3.276e-06         -0.2574
 102       5.250e-02       2.667e-02       6.615e-07         -0.3754
 103       2.250e-02       2.667e-02       3.319e-07         -0.8130
Strip 13
 104       2.325e-01       8.000e-02       6.956e-09         -0.0505
 105       2.025e-01       8.000e-02       1.310e-08         -0.0823
 106       1.725e-01       8.000e-02       9.197e-08         -0.1132
 107       1.425e-01       8.000e-02       1.051e-06         -0.1478
 108       1.125e-01       8.000e-02       3.147e-06         -0.1916
 109       8.250e-02       8.000e-02       3.276e-06         -0.2564
 110       5.250e-02       8.000e-02       6.615e-07         -0.3741
 111       2.250e-02       8.000e-02       3.319e-07         -0.8106
Strip 14
 112       2.325e-01       1.333e-01       6.956e-09         -0.0500
 113       2.025e-01       1.333e-01       1.310e-08         -0.0815
 114       1.725e-01       1.333e-01       9.197e-08         -0.1121
 115       1.425e-01       1.333e-01       1.051e-06         -0.1464
 116       1.125e-01       1.333e-01       3.147e-06         -0.1900
 117       8.250e-02       1.333e-01       3.276e-06         -0.2544
 118       5.250e-02       1.333e-01       6.615e-07         -0.3716
 119       2.250e-02       1.333e-01       3.319e-07         -0.8056
Strip 15
 120       2.325e-01       1.867e-01       6.956e-09         -0.0491
 121       2.025e-01       1.867e-01       1.310e-08         -0.0801
 122       1.725e-01       1.867e-01       9.197e-08         -0.1104
 123       1.425e-01       1.867e-01       1.051e-06         -0.1443
 124       1.125e-01       1.867e-01       3.147e-06         -0.1875
 125       8.250e-02       1.867e-01       3.276e-06         -0.2513
 126       5.250e-02       1.867e-01       6.615e-07         -0.3675
 127       2.250e-02       1.867e-01       3.319e-07         -0.7979
Strip 16
 128       2.325e-01       2.400e-01       6.956e-09         -0.0479
 129       2.025e-01       2.400e-01       1.310e-08         -0.0782
 130       1.725e-01       2.400e-01       9.197e-08         -0.1079
 131       1.425e-01       2.400e-01       1.051e-06         -0.1412
 132       1.125e-01       2.400e-01       3.147e-06         -0.1838
 133       8.250e-02       2.400e-01       3.276e-06         -0.2469
 134       5.250e-02       2.400e-01       6.615e-07         -0.3617
 135       2.250e-02       2.400e-01       3.319e-07         -0.7869
Strip 17
 136       2.325e-01       2.933e-01       6.956e-09         -0.0463
 137       2.025e-01       2.933e-01       1.310e-08         -0.0756
 138       1.725e-01       2.933e-01       9.197e-08         -0.1045
 139       1.425e-01       2.933e-01       1.051e-06         -0.1370
 140       1.125e-01       2.933e-01       3.147e-06         -0.1788
 141       8.250e-02       2.933e-01       3.276e-06         -0.2408
 142       5.250e-02       2.933e-01       6.615e-07         -0.3538
 143       2.250e-02       2.933e-01       3.319e-07         -0.7721
Strip 18
 144       2.325e-01       3.467e-01       6.956e-09         -0.0440
 145       2.025e-01       3.467e-01       1.310e-08         -0.0721
 146       1.725e-01       3.467e-01       9.197e-08         -0.0999
 147       1.425e-01       3.467e-01       1.051e-06         -0.1314
 148       1.125e-01       3.467e-01       3.147e-06         -0.1720
 149       8.250e-02       3.467e-01       3.276e-06         -0.2326
 150       5.250e-02       3.467e-01       6.615e-07         -0.3432
 151       2.250e-02       3.467e-01       3.319e-07         -0.7523
Strip 19
 152       2.325e-01       4.000e-01       6.956e-09         -0.0411
 153       2.025e-01       4.000e-01       1.310e-08         -0.0674
 154       1.725e-01       4.000e-01       9.197e-08         -0.0937
 155       1.425e-01       4.000e-01       1.051e-06         -0.1237
 156       1.125e-01       4.000e-01       3.147e-06         -0.1628
 157       8.250e-02       4.000e-01       3.276e-06         -0.2215
 158       5.250e-02       4.000e-01       6.615e-07         -0.3290
 159       2.250e-02       4.000e-01       3.319e-07         -0.7261
Strip 20
 160       2.325e-01       4.533e-01       6.956e-09         -0.0372
 161       2.025e-01       4.533e-01       1.310e-08         -0.0612
 162       1.725e-01       4.533e-01       9.197e-08         -0.0854
 163       1.425e-01       4.533e-01       1.051e-06         -0.1133
 164       1.125e-01       4.533e-01       3.147e-06         -0.1502
 165       8.250e-02       4.533e-01       3.276e-06         -0.2063
 166       5.250e-02       4.533e-01       6.615e-07         -0.3095
 167       2.250e-02       4.533e-01       3.319e-07         -0.6907
Strip 21
 168       2.325e-01       5.067e-01       6.956e-09         -0.0321
 169       2.025e-01       5.067e-01       1.310e-08         -0.0529
 170       1.725e-01       5.067e-01       9.197e-08         -0.0740
 171       1.425e-01       5.067e-01       1.051e-06         -0.0989
 172       1.125e-01       5.067e-01       3.147e-06         -0.1325
 173       8.250e-02       5.067e-01       3.276e-06         -0.1846
 174       5.250e-02       5.067e-01       6.615e-07         -0.2819
 175       2.250e-02       5.067e-01       3.319e-07         -0.6413
Strip 22
 176       2.325e-01       5.600e-01       6.956e-09         -0.0254
 177       2.025e-01       5.600e-01       1.310e-08         -0.0418
 178       1.725e-01       5.600e-01       9.197e-08         -0.0586
 179       1.425e-01       5.600e-01       1.051e-06         -0.0787
 180       1.125e-01       5.600e-01       3.147e-06         -0.1067
 181       8.250e-02       5.600e-01       3.276e-06         -0.1521
 182       5.250e-02       5.600e-01       6.615e-07         -0.2396
 183       2.250e-02       5.600e-01       3.319e-07         -0.5677
Strip 23
 184       2.325e-01       6.133e-01       6.956e-09         -0.0166
 185       2.025e-01       6.133e-01       1.310e-08         -0.0268
 186       1.725e-01       6.133e-01       9.197e-08         -0.0373
 187       1.425e-01       6.133e-01       1.051e-06         -0.0499
 188       1.125e-01       6.133e-01       3.147e-06         -0.0679
 189       8.250e-02       6.133e-01       3.276e-06         -0.0992
 190       5.250e-02       6.133e-01       6.615e-07         -0.1651
 191       2.250e-02       6.133e-01       3.319e-07         -0.4376
Strip 24
 192       0.000e+00       0.000e+00       0.000e+00          0.7511
 193       0.000e+00       0.000e+00       0.000e+00          1.2167
 194       0.000e+00       0.000e+00       0.000e+00          1.6931
 195       0.000e+00       0.000e+00       0.000e+00          2.2605
 196       0.000e+00       0.000e+00       0.000e+00          3.0772
 197       0.000e+00       0.000e+00       0.000e+00          4.5026
 198       0.000e+00       0.000e+00       0.000e+00          7.4913
 199       0.000e+00       0.000e+00       0.000e+00         19.8509










