XFLR5 v6.02 Beta

NAC642A015 Wing
T1-54.4 m/s-VLM1-x0.000mm
QInf  =   54.400000 m/s
Alpha =   12.000000
Beta  =    0.000°
Phi   =    0.000°
Ctrl  =   18.000
CL    =    0.846477
Cy    =    0.000000
Cd    =    0.056916     ICd   =    0.042428     PCd   =    0.014488
Cl   = -5.22804e-18
Cm   =   -0.201177
ICn   =    0.000000     PCn   =   -0.000000 
XCP   =    0.058313     YCP   =   -0.000000 
XNP   =    0.000000
Bend. =   61.486037

NAC642A015 Wing
  y-span        Chord      Ai         Cl        PCd          ICd        CmGeom      CmAirf      XTrtop    XTrBot      XCP       BM
   -0.6133     0.2400    -8.557    0.433504    0.006839    0.033690   -0.088507    0.021003     0.5083    0.7590    0.2021    0.0000
   -0.5600     0.2400    -7.741    0.613644    0.010584    0.042948   -0.134898    0.019626     0.0825    0.8296    0.2182    0.5420
   -0.5067     0.2400    -7.036    0.725563    0.012121    0.045981   -0.166079    0.016128     0.0342    0.8945    0.2279    1.8489
   -0.4533     0.2400    -6.442    0.802709    0.013347    0.046435   -0.188149    0.012970     0.0255    0.9482    0.2339    4.0576
   -0.4000     0.2400    -5.954    0.858480    0.014279    0.045785   -0.204186    0.010504     0.0220    0.9762    0.2378    7.2618
   -0.3467     0.2400    -5.560    0.899825    0.015033    0.044724   -0.216030    0.008660     0.0199    0.9919    0.2404   11.5286
   -0.2933     0.2400    -5.246    0.930817    0.015681    0.043587   -0.224847    0.007303     0.0189    0.9972    0.2421   16.9076
   -0.2400     0.2400    -5.002    0.954005    0.016260    0.042538   -0.231396    0.006316     0.0182    1.0000    0.2434   23.4356
   -0.1867     0.2400    -4.816    0.971049    0.016855    0.041656   -0.236177    0.005610     0.0177    1.0000    0.2442   31.1402
   -0.1333     0.2400    -4.683    0.983038    0.017353    0.040979   -0.239523    0.005126     0.0173    1.0000    0.2448   40.0415
   -0.0800     0.2400    -4.597    0.990682    0.017673    0.040523   -0.241647    0.004824     0.0171    1.0000    0.2451   50.1538
   -0.0267     0.2400    -4.555    0.994403    0.017829    0.040293   -0.242679    0.004678     0.0170    1.0000    0.2453   61.4860
    0.0267     0.2400    -4.555    0.994403    0.017829    0.040293   -0.242679    0.004678     0.0170    1.0000    0.2453   61.4860
    0.0800     0.2400    -4.597    0.990682    0.017673    0.040523   -0.241647    0.004824     0.0171    1.0000    0.2451   50.1538
    0.1333     0.2400    -4.683    0.983038    0.017353    0.040979   -0.239523    0.005126     0.0173    1.0000    0.2448   40.0415
    0.1867     0.2400    -4.816    0.971049    0.016855    0.041656   -0.236177    0.005610     0.0177    1.0000    0.2442   31.1402
    0.2400     0.2400    -5.002    0.954005    0.016260    0.042538   -0.231396    0.006316     0.0182    1.0000    0.2434   23.4356
    0.2933     0.2400    -5.246    0.930817    0.015681    0.043587   -0.224847    0.007303     0.0189    0.9972    0.2421   16.9076
    0.3467     0.2400    -5.560    0.899825    0.015033    0.044724   -0.216030    0.008660     0.0199    0.9919    0.2404   11.5286
    0.4000     0.2400    -5.954    0.858480    0.014279    0.045785   -0.204186    0.010504     0.0220    0.9762    0.2378    7.2618
    0.4533     0.2400    -6.442    0.802709    0.013347    0.046435   -0.188149    0.012970     0.0255    0.9482    0.2339    4.0576
    0.5067     0.2400    -7.036    0.725563    0.012121    0.045981   -0.166079    0.016128     0.0342    0.8945    0.2279    1.8489
    0.5600     0.2400    -7.741    0.613644    0.010584    0.042948   -0.134898    0.019626     0.0825    0.8296    0.2182    0.5420
    0.6133     0.2400    -8.557    0.433504    0.006839    0.033690   -0.088507    0.021003     0.5083    0.7590    0.2021    0.0000


Wing Cp Coefficients
 Panel     CtrlPt.x        CtrlPt.y        CtrlPt.z             Cp
NAC642A015 WingCp Coefficients
Strip 1
   8       2.325e-01      -5.600e-01       6.956e-09          0.0987
   9       2.025e-01      -5.600e-01       1.310e-08          0.1622
  10       1.725e-01      -5.600e-01       9.197e-08          0.2274
  11       1.425e-01      -5.600e-01       1.051e-06          0.3073
  12       1.125e-01      -5.600e-01       3.147e-06          0.4176
  13       8.250e-02      -5.600e-01       3.276e-06          0.5909
  14       5.250e-02      -5.600e-01       6.615e-07          0.9322
  15       2.250e-02      -5.600e-01       3.319e-07          2.2084
Strip 2
  16       2.325e-01      -5.067e-01       6.956e-09          0.1247
  17       2.025e-01      -5.067e-01       1.310e-08          0.2053
  18       1.725e-01      -5.067e-01       9.197e-08          0.2875
  19       1.425e-01      -5.067e-01       1.051e-06          0.3860
  20       1.125e-01      -5.067e-01       3.147e-06          0.5178
  21       8.250e-02      -5.067e-01       3.276e-06          0.7176
  22       5.250e-02      -5.067e-01       6.615e-07          1.0966
  23       2.250e-02      -5.067e-01       3.319e-07          2.4951
Strip 3
  24       2.325e-01      -4.533e-01       6.956e-09          0.1446
  25       2.025e-01      -4.533e-01       1.310e-08          0.2377
  26       1.725e-01      -4.533e-01       9.197e-08          0.3315
  27       1.425e-01      -4.533e-01       1.051e-06          0.4420
  28       1.125e-01      -4.533e-01       3.147e-06          0.5867
  29       8.250e-02      -4.533e-01       3.276e-06          0.8019
  30       5.250e-02      -4.533e-01       6.615e-07          1.2043
  31       2.250e-02      -4.533e-01       3.319e-07          2.6871
Strip 4
  32       2.325e-01      -4.000e-01       6.956e-09          0.1598
  33       2.025e-01      -4.000e-01       1.310e-08          0.2620
  34       1.725e-01      -4.000e-01       9.197e-08          0.3640
  35       1.425e-01      -4.000e-01       1.051e-06          0.4825
  36       1.125e-01      -4.000e-01       3.147e-06          0.6358
  37       8.250e-02      -4.000e-01       3.276e-06          0.8612
  38       5.250e-02      -4.000e-01       6.615e-07          1.2800
  39       2.250e-02      -4.000e-01       3.319e-07          2.8248
Strip 5
  40       2.325e-01      -3.467e-01       6.956e-09          0.1713
  41       2.025e-01      -3.467e-01       1.310e-08          0.2803
  42       1.725e-01      -3.467e-01       9.197e-08          0.3880
  43       1.425e-01      -3.467e-01       1.051e-06          0.5122
  44       1.125e-01      -3.467e-01       3.147e-06          0.6716
  45       8.250e-02      -3.467e-01       3.276e-06          0.9043
  46       5.250e-02      -3.467e-01       6.615e-07          1.3354
  47       2.250e-02      -3.467e-01       3.319e-07          2.9270
Strip 6
  48       2.325e-01      -2.933e-01       6.956e-09          0.1799
  49       2.025e-01      -2.933e-01       1.310e-08          0.2939
  50       1.725e-01      -2.933e-01       9.197e-08          0.4060
  51       1.425e-01      -2.933e-01       1.051e-06          0.5343
  52       1.125e-01      -2.933e-01       3.147e-06          0.6980
  53       8.250e-02      -2.933e-01       3.276e-06          0.9362
  54       5.250e-02      -2.933e-01       6.615e-07          1.3766
  55       2.250e-02      -2.933e-01       3.319e-07          3.0039
Strip 7
  56       2.325e-01      -2.400e-01       6.956e-09          0.1864
  57       2.025e-01      -2.400e-01       1.310e-08          0.3041
  58       1.725e-01      -2.400e-01       9.197e-08          0.4193
  59       1.425e-01      -2.400e-01       1.051e-06          0.5506
  60       1.125e-01      -2.400e-01       3.147e-06          0.7176
  61       8.250e-02      -2.400e-01       3.276e-06          0.9599
  62       5.250e-02      -2.400e-01       6.615e-07          1.4073
  63       2.250e-02      -2.400e-01       3.319e-07          3.0617
Strip 8
  64       2.325e-01      -1.867e-01       6.956e-09          0.1911
  65       2.025e-01      -1.867e-01       1.310e-08          0.3115
  66       1.725e-01      -1.867e-01       9.197e-08          0.4290
  67       1.425e-01      -1.867e-01       1.051e-06          0.5625
  68       1.125e-01      -1.867e-01       3.147e-06          0.7318
  69       8.250e-02      -1.867e-01       3.276e-06          0.9772
  70       5.250e-02      -1.867e-01       6.615e-07          1.4298
  71       2.250e-02      -1.867e-01       3.319e-07          3.1044
Strip 9
  72       2.325e-01      -1.333e-01       6.956e-09          0.1945
  73       2.025e-01      -1.333e-01       1.310e-08          0.3167
  74       1.725e-01      -1.333e-01       9.197e-08          0.4357
  75       1.425e-01      -1.333e-01       1.051e-06          0.5708
  76       1.125e-01      -1.333e-01       3.147e-06          0.7418
  77       8.250e-02      -1.333e-01       3.276e-06          0.9893
  78       5.250e-02      -1.333e-01       6.615e-07          1.4456
  79       2.250e-02      -1.333e-01       3.319e-07          3.1345
Strip 10
  80       2.325e-01      -8.000e-02       6.956e-09          0.1966
  81       2.025e-01      -8.000e-02       1.310e-08          0.3199
  82       1.725e-01      -8.000e-02       9.197e-08          0.4400
  83       1.425e-01      -8.000e-02       1.051e-06          0.5760
  84       1.125e-01      -8.000e-02       3.147e-06          0.7481
  85       8.250e-02      -8.000e-02       3.276e-06          0.9969
  86       5.250e-02      -8.000e-02       6.615e-07          1.4557
  87       2.250e-02      -8.000e-02       3.319e-07          3.1538
Strip 11
  88       2.325e-01      -2.667e-02       6.956e-09          0.1976
  89       2.025e-01      -2.667e-02       1.310e-08          0.3215
  90       1.725e-01      -2.667e-02       9.197e-08          0.4421
  91       1.425e-01      -2.667e-02       1.051e-06          0.5786
  92       1.125e-01      -2.667e-02       3.147e-06          0.7512
  93       8.250e-02      -2.667e-02       3.276e-06          1.0007
  94       5.250e-02      -2.667e-02       6.615e-07          1.4606
  95       2.250e-02      -2.667e-02       3.319e-07          3.1632
Strip 12
  96       2.325e-01       2.667e-02       6.956e-09          0.1976
  97       2.025e-01       2.667e-02       1.310e-08          0.3215
  98       1.725e-01       2.667e-02       9.197e-08          0.4421
  99       1.425e-01       2.667e-02       1.051e-06          0.5786
 100       1.125e-01       2.667e-02       3.147e-06          0.7512
 101       8.250e-02       2.667e-02       3.276e-06          1.0007
 102       5.250e-02       2.667e-02       6.615e-07          1.4606
 103       2.250e-02       2.667e-02       3.319e-07          3.1632
Strip 13
 104       2.325e-01       8.000e-02       6.956e-09          0.1966
 105       2.025e-01       8.000e-02       1.310e-08          0.3199
 106       1.725e-01       8.000e-02       9.197e-08          0.4400
 107       1.425e-01       8.000e-02       1.051e-06          0.5760
 108       1.125e-01       8.000e-02       3.147e-06          0.7481
 109       8.250e-02       8.000e-02       3.276e-06          0.9969
 110       5.250e-02       8.000e-02       6.615e-07          1.4557
 111       2.250e-02       8.000e-02       3.319e-07          3.1538
Strip 14
 112       2.325e-01       1.333e-01       6.956e-09          0.1945
 113       2.025e-01       1.333e-01       1.310e-08          0.3167
 114       1.725e-01       1.333e-01       9.197e-08          0.4357
 115       1.425e-01       1.333e-01       1.051e-06          0.5708
 116       1.125e-01       1.333e-01       3.147e-06          0.7418
 117       8.250e-02       1.333e-01       3.276e-06          0.9893
 118       5.250e-02       1.333e-01       6.615e-07          1.4456
 119       2.250e-02       1.333e-01       3.319e-07          3.1345
Strip 15
 120       2.325e-01       1.867e-01       6.956e-09          0.1911
 121       2.025e-01       1.867e-01       1.310e-08          0.3115
 122       1.725e-01       1.867e-01       9.197e-08          0.4290
 123       1.425e-01       1.867e-01       1.051e-06          0.5625
 124       1.125e-01       1.867e-01       3.147e-06          0.7318
 125       8.250e-02       1.867e-01       3.276e-06          0.9772
 126       5.250e-02       1.867e-01       6.615e-07          1.4298
 127       2.250e-02       1.867e-01       3.319e-07          3.1044
Strip 16
 128       2.325e-01       2.400e-01       6.956e-09          0.1864
 129       2.025e-01       2.400e-01       1.310e-08          0.3041
 130       1.725e-01       2.400e-01       9.197e-08          0.4193
 131       1.425e-01       2.400e-01       1.051e-06          0.5506
 132       1.125e-01       2.400e-01       3.147e-06          0.7176
 133       8.250e-02       2.400e-01       3.276e-06          0.9599
 134       5.250e-02       2.400e-01       6.615e-07          1.4073
 135       2.250e-02       2.400e-01       3.319e-07          3.0617
Strip 17
 136       2.325e-01       2.933e-01       6.956e-09          0.1799
 137       2.025e-01       2.933e-01       1.310e-08          0.2939
 138       1.725e-01       2.933e-01       9.197e-08          0.4060
 139       1.425e-01       2.933e-01       1.051e-06          0.5343
 140       1.125e-01       2.933e-01       3.147e-06          0.6980
 141       8.250e-02       2.933e-01       3.276e-06          0.9362
 142       5.250e-02       2.933e-01       6.615e-07          1.3766
 143       2.250e-02       2.933e-01       3.319e-07          3.0039
Strip 18
 144       2.325e-01       3.467e-01       6.956e-09          0.1713
 145       2.025e-01       3.467e-01       1.310e-08          0.2803
 146       1.725e-01       3.467e-01       9.197e-08          0.3880
 147       1.425e-01       3.467e-01       1.051e-06          0.5122
 148       1.125e-01       3.467e-01       3.147e-06          0.6716
 149       8.250e-02       3.467e-01       3.276e-06          0.9043
 150       5.250e-02       3.467e-01       6.615e-07          1.3354
 151       2.250e-02       3.467e-01       3.319e-07          2.9270
Strip 19
 152       2.325e-01       4.000e-01       6.956e-09          0.1598
 153       2.025e-01       4.000e-01       1.310e-08          0.2620
 154       1.725e-01       4.000e-01       9.197e-08          0.3640
 155       1.425e-01       4.000e-01       1.051e-06          0.4825
 156       1.125e-01       4.000e-01       3.147e-06          0.6358
 157       8.250e-02       4.000e-01       3.276e-06          0.8612
 158       5.250e-02       4.000e-01       6.615e-07          1.2800
 159       2.250e-02       4.000e-01       3.319e-07          2.8248
Strip 20
 160       2.325e-01       4.533e-01       6.956e-09          0.1446
 161       2.025e-01       4.533e-01       1.310e-08          0.2377
 162       1.725e-01       4.533e-01       9.197e-08          0.3315
 163       1.425e-01       4.533e-01       1.051e-06          0.4420
 164       1.125e-01       4.533e-01       3.147e-06          0.5867
 165       8.250e-02       4.533e-01       3.276e-06          0.8019
 166       5.250e-02       4.533e-01       6.615e-07          1.2043
 167       2.250e-02       4.533e-01       3.319e-07          2.6871
Strip 21
 168       2.325e-01       5.067e-01       6.956e-09          0.1247
 169       2.025e-01       5.067e-01       1.310e-08          0.2053
 170       1.725e-01       5.067e-01       9.197e-08          0.2875
 171       1.425e-01       5.067e-01       1.051e-06          0.3860
 172       1.125e-01       5.067e-01       3.147e-06          0.5178
 173       8.250e-02       5.067e-01       3.276e-06          0.7176
 174       5.250e-02       5.067e-01       6.615e-07          1.0966
 175       2.250e-02       5.067e-01       3.319e-07          2.4951
Strip 22
 176       2.325e-01       5.600e-01       6.956e-09          0.0987
 177       2.025e-01       5.600e-01       1.310e-08          0.1622
 178       1.725e-01       5.600e-01       9.197e-08          0.2274
 179       1.425e-01       5.600e-01       1.051e-06          0.3073
 180       1.125e-01       5.600e-01       3.147e-06          0.4176
 181       8.250e-02       5.600e-01       3.276e-06          0.5909
 182       5.250e-02       5.600e-01       6.615e-07          0.9322
 183       2.250e-02       5.600e-01       3.319e-07          2.2084
Strip 23
 184       2.325e-01       6.133e-01       6.956e-09          0.0644
 185       2.025e-01       6.133e-01       1.310e-08          0.1039
 186       1.725e-01       6.133e-01       9.197e-08          0.1445
 187       1.425e-01       6.133e-01       1.051e-06          0.1949
 188       1.125e-01       6.133e-01       3.147e-06          0.2665
 189       8.250e-02       6.133e-01       3.276e-06          0.3852
 190       5.250e-02       6.133e-01       6.615e-07          0.6425
 191       2.250e-02       6.133e-01       3.319e-07          1.7025
Strip 24
 192       0.000e+00       0.000e+00       0.000e+00         -3.6379
 193       0.000e+00       0.000e+00       0.000e+00         -5.8745
 194       0.000e+00       0.000e+00       0.000e+00         -8.1657
 195       0.000e+00       0.000e+00       0.000e+00        -11.0163
 196       0.000e+00       0.000e+00       0.000e+00        -15.0620
 197       0.000e+00       0.000e+00       0.000e+00        -21.7748
 198       0.000e+00       0.000e+00       0.000e+00        -36.3143
 199       0.000e+00       0.000e+00       0.000e+00        -96.2333










