XFLR5 v6.02 Beta

NAC642A015 Wing
T1-54.4 m/s-VLM1-x0.000mm
QInf  =   54.400000 m/s
Alpha =    0.500000
Beta  =    0.000°
Phi   =    0.000°
Ctrl  =   18.000
CL    =    0.036307
Cy    =    0.000000
Cd    =    0.006498     ICd   =    0.000077     PCd   =    0.006421
Cl   = 4.82993e-19
Cm   = -0.00864316
ICn   =   -0.000000     PCn   =   -0.000000 
XCP   =    0.057136     YCP   =   -0.000000 
XNP   =    0.000000
Bend. =    2.639891

NAC642A015 Wing
  y-span        Chord      Ai         Cl        PCd          ICd        CmGeom      CmAirf      XTrtop    XTrBot      XCP       BM
   -0.6133     0.2400    -0.370    0.018806    0.006434    0.000061   -0.003803    0.000898     0.6492    0.6577    0.2022    0.0000
   -0.5600     0.2400    -0.334    0.026537    0.006428    0.000077   -0.005797    0.000838     0.6478    0.6594    0.2184    0.0233
   -0.5067     0.2400    -0.304    0.031292    0.006425    0.000083   -0.007136    0.000687     0.6469    0.6604    0.2280    0.0794
   -0.4533     0.2400    -0.278    0.034540    0.006422    0.000084   -0.008084    0.000551     0.6462    0.6611    0.2340    0.1742
   -0.4000     0.2400    -0.257    0.036871    0.006421    0.000083   -0.008773    0.000445     0.6458    0.6616    0.2379    0.3118
   -0.3467     0.2400    -0.239    0.038588    0.006419    0.000081   -0.009281    0.000366     0.6455    0.6620    0.2405    0.4950
   -0.2933     0.2400    -0.226    0.039870    0.006418    0.000079   -0.009660    0.000308     0.6452    0.6623    0.2423    0.7259
   -0.2400     0.2400    -0.215    0.040825    0.006418    0.000077   -0.009941    0.000265     0.6450    0.6625    0.2435    1.0062
   -0.1867     0.2400    -0.207    0.041525    0.006417    0.000075   -0.010146    0.000235     0.6449    0.6626    0.2443    1.3370
   -0.1333     0.2400    -0.202    0.042016    0.006417    0.000074   -0.010290    0.000214     0.6448    0.6628    0.2449    1.7192
   -0.0800     0.2400    -0.198    0.042329    0.006417    0.000073   -0.010381    0.000201     0.6448    0.6628    0.2452    2.1533
   -0.0267     0.2400    -0.196    0.042481    0.006416    0.000073   -0.010425    0.000195     0.6447    0.6629    0.2454    2.6399
    0.0267     0.2400    -0.196    0.042481    0.006416    0.000073   -0.010425    0.000195     0.6447    0.6629    0.2454    2.6399
    0.0800     0.2400    -0.198    0.042329    0.006417    0.000073   -0.010381    0.000201     0.6448    0.6628    0.2452    2.1533
    0.1333     0.2400    -0.202    0.042016    0.006417    0.000074   -0.010290    0.000214     0.6448    0.6628    0.2449    1.7192
    0.1867     0.2400    -0.207    0.041525    0.006417    0.000075   -0.010146    0.000235     0.6449    0.6626    0.2443    1.3370
    0.2400     0.2400    -0.215    0.040825    0.006418    0.000077   -0.009941    0.000265     0.6450    0.6625    0.2435    1.0062
    0.2933     0.2400    -0.226    0.039870    0.006418    0.000079   -0.009660    0.000308     0.6452    0.6623    0.2423    0.7259
    0.3467     0.2400    -0.239    0.038588    0.006419    0.000081   -0.009281    0.000366     0.6455    0.6620    0.2405    0.4950
    0.4000     0.2400    -0.257    0.036871    0.006421    0.000083   -0.008773    0.000445     0.6458    0.6616    0.2379    0.3118
    0.4533     0.2400    -0.278    0.034540    0.006422    0.000084   -0.008084    0.000551     0.6462    0.6611    0.2340    0.1742
    0.5067     0.2400    -0.304    0.031292    0.006425    0.000083   -0.007136    0.000687     0.6469    0.6604    0.2280    0.0794
    0.5600     0.2400    -0.334    0.026537    0.006428    0.000077   -0.005797    0.000838     0.6478    0.6594    0.2184    0.0233
    0.6133     0.2400    -0.370    0.018806    0.006434    0.000061   -0.003803    0.000898     0.6492    0.6577    0.2022    0.0000


Wing Cp Coefficients
 Panel     CtrlPt.x        CtrlPt.y        CtrlPt.z             Cp
NAC642A015 WingCp Coefficients
Strip 1
   8       2.325e-01      -5.600e-01       6.956e-09          0.0042
   9       2.025e-01      -5.600e-01       1.310e-08          0.0069
  10       1.725e-01      -5.600e-01       9.197e-08          0.0096
  11       1.425e-01      -5.600e-01       1.051e-06          0.0134
  12       1.125e-01      -5.600e-01       3.147e-06          0.0184
  13       8.250e-02      -5.600e-01       3.276e-06          0.0252
  14       5.250e-02      -5.600e-01       6.615e-07          0.0400
  15       2.250e-02      -5.600e-01       3.319e-07          0.0947
Strip 2
  16       2.325e-01      -5.067e-01       6.956e-09          0.0053
  17       2.025e-01      -5.067e-01       1.310e-08          0.0087
  18       1.725e-01      -5.067e-01       9.197e-08          0.0122
  19       1.425e-01      -5.067e-01       1.051e-06          0.0168
  20       1.125e-01      -5.067e-01       3.147e-06          0.0227
  21       8.250e-02      -5.067e-01       3.276e-06          0.0306
  22       5.250e-02      -5.067e-01       6.615e-07          0.0470
  23       2.250e-02      -5.067e-01       3.319e-07          0.1070
Strip 3
  24       2.325e-01      -4.533e-01       6.956e-09          0.0062
  25       2.025e-01      -4.533e-01       1.310e-08          0.0101
  26       1.725e-01      -4.533e-01       9.197e-08          0.0141
  27       1.425e-01      -4.533e-01       1.051e-06          0.0192
  28       1.125e-01      -4.533e-01       3.147e-06          0.0256
  29       8.250e-02      -4.533e-01       3.276e-06          0.0342
  30       5.250e-02      -4.533e-01       6.615e-07          0.0516
  31       2.250e-02      -4.533e-01       3.319e-07          0.1152
Strip 4
  32       2.325e-01      -4.000e-01       6.956e-09          0.0068
  33       2.025e-01      -4.000e-01       1.310e-08          0.0112
  34       1.725e-01      -4.000e-01       9.197e-08          0.0155
  35       1.425e-01      -4.000e-01       1.051e-06          0.0209
  36       1.125e-01      -4.000e-01       3.147e-06          0.0277
  37       8.250e-02      -4.000e-01       3.276e-06          0.0368
  38       5.250e-02      -4.000e-01       6.615e-07          0.0549
  39       2.250e-02      -4.000e-01       3.319e-07          0.1211
Strip 5
  40       2.325e-01      -3.467e-01       6.956e-09          0.0073
  41       2.025e-01      -3.467e-01       1.310e-08          0.0119
  42       1.725e-01      -3.467e-01       9.197e-08          0.0165
  43       1.425e-01      -3.467e-01       1.051e-06          0.0222
  44       1.125e-01      -3.467e-01       3.147e-06          0.0293
  45       8.250e-02      -3.467e-01       3.276e-06          0.0386
  46       5.250e-02      -3.467e-01       6.615e-07          0.0573
  47       2.250e-02      -3.467e-01       3.319e-07          0.1255
Strip 6
  48       2.325e-01      -2.933e-01       6.956e-09          0.0077
  49       2.025e-01      -2.933e-01       1.310e-08          0.0125
  50       1.725e-01      -2.933e-01       9.197e-08          0.0173
  51       1.425e-01      -2.933e-01       1.051e-06          0.0231
  52       1.125e-01      -2.933e-01       3.147e-06          0.0304
  53       8.250e-02      -2.933e-01       3.276e-06          0.0400
  54       5.250e-02      -2.933e-01       6.615e-07          0.0590
  55       2.250e-02      -2.933e-01       3.319e-07          0.1288
Strip 7
  56       2.325e-01      -2.400e-01       6.956e-09          0.0080
  57       2.025e-01      -2.400e-01       1.310e-08          0.0130
  58       1.725e-01      -2.400e-01       9.197e-08          0.0179
  59       1.425e-01      -2.400e-01       1.051e-06          0.0238
  60       1.125e-01      -2.400e-01       3.147e-06          0.0313
  61       8.250e-02      -2.400e-01       3.276e-06          0.0410
  62       5.250e-02      -2.400e-01       6.615e-07          0.0604
  63       2.250e-02      -2.400e-01       3.319e-07          0.1313
Strip 8
  64       2.325e-01      -1.867e-01       6.956e-09          0.0082
  65       2.025e-01      -1.867e-01       1.310e-08          0.0133
  66       1.725e-01      -1.867e-01       9.197e-08          0.0183
  67       1.425e-01      -1.867e-01       1.051e-06          0.0243
  68       1.125e-01      -1.867e-01       3.147e-06          0.0319
  69       8.250e-02      -1.867e-01       3.276e-06          0.0418
  70       5.250e-02      -1.867e-01       6.615e-07          0.0613
  71       2.250e-02      -1.867e-01       3.319e-07          0.1331
Strip 9
  72       2.325e-01      -1.333e-01       6.956e-09          0.0083
  73       2.025e-01      -1.333e-01       1.310e-08          0.0135
  74       1.725e-01      -1.333e-01       9.197e-08          0.0186
  75       1.425e-01      -1.333e-01       1.051e-06          0.0247
  76       1.125e-01      -1.333e-01       3.147e-06          0.0323
  77       8.250e-02      -1.333e-01       3.276e-06          0.0423
  78       5.250e-02      -1.333e-01       6.615e-07          0.0620
  79       2.250e-02      -1.333e-01       3.319e-07          0.1344
Strip 10
  80       2.325e-01      -8.000e-02       6.956e-09          0.0084
  81       2.025e-01      -8.000e-02       1.310e-08          0.0137
  82       1.725e-01      -8.000e-02       9.197e-08          0.0188
  83       1.425e-01      -8.000e-02       1.051e-06          0.0249
  84       1.125e-01      -8.000e-02       3.147e-06          0.0326
  85       8.250e-02      -8.000e-02       3.276e-06          0.0426
  86       5.250e-02      -8.000e-02       6.615e-07          0.0624
  87       2.250e-02      -8.000e-02       3.319e-07          0.1353
Strip 11
  88       2.325e-01      -2.667e-02       6.956e-09          0.0085
  89       2.025e-01      -2.667e-02       1.310e-08          0.0137
  90       1.725e-01      -2.667e-02       9.197e-08          0.0189
  91       1.425e-01      -2.667e-02       1.051e-06          0.0250
  92       1.125e-01      -2.667e-02       3.147e-06          0.0327
  93       8.250e-02      -2.667e-02       3.276e-06          0.0428
  94       5.250e-02      -2.667e-02       6.615e-07          0.0626
  95       2.250e-02      -2.667e-02       3.319e-07          0.1357
Strip 12
  96       2.325e-01       2.667e-02       6.956e-09          0.0085
  97       2.025e-01       2.667e-02       1.310e-08          0.0137
  98       1.725e-01       2.667e-02       9.197e-08          0.0189
  99       1.425e-01       2.667e-02       1.051e-06          0.0250
 100       1.125e-01       2.667e-02       3.147e-06          0.0327
 101       8.250e-02       2.667e-02       3.276e-06          0.0428
 102       5.250e-02       2.667e-02       6.615e-07          0.0626
 103       2.250e-02       2.667e-02       3.319e-07          0.1357
Strip 13
 104       2.325e-01       8.000e-02       6.956e-09          0.0084
 105       2.025e-01       8.000e-02       1.310e-08          0.0137
 106       1.725e-01       8.000e-02       9.197e-08          0.0188
 107       1.425e-01       8.000e-02       1.051e-06          0.0249
 108       1.125e-01       8.000e-02       3.147e-06          0.0326
 109       8.250e-02       8.000e-02       3.276e-06          0.0426
 110       5.250e-02       8.000e-02       6.615e-07          0.0624
 111       2.250e-02       8.000e-02       3.319e-07          0.1353
Strip 14
 112       2.325e-01       1.333e-01       6.956e-09          0.0083
 113       2.025e-01       1.333e-01       1.310e-08          0.0135
 114       1.725e-01       1.333e-01       9.197e-08          0.0186
 115       1.425e-01       1.333e-01       1.051e-06          0.0247
 116       1.125e-01       1.333e-01       3.147e-06          0.0323
 117       8.250e-02       1.333e-01       3.276e-06          0.0423
 118       5.250e-02       1.333e-01       6.615e-07          0.0620
 119       2.250e-02       1.333e-01       3.319e-07          0.1344
Strip 15
 120       2.325e-01       1.867e-01       6.956e-09          0.0082
 121       2.025e-01       1.867e-01       1.310e-08          0.0133
 122       1.725e-01       1.867e-01       9.197e-08          0.0183
 123       1.425e-01       1.867e-01       1.051e-06          0.0243
 124       1.125e-01       1.867e-01       3.147e-06          0.0319
 125       8.250e-02       1.867e-01       3.276e-06          0.0418
 126       5.250e-02       1.867e-01       6.615e-07          0.0613
 127       2.250e-02       1.867e-01       3.319e-07          0.1331
Strip 16
 128       2.325e-01       2.400e-01       6.956e-09          0.0080
 129       2.025e-01       2.400e-01       1.310e-08          0.0130
 130       1.725e-01       2.400e-01       9.197e-08          0.0179
 131       1.425e-01       2.400e-01       1.051e-06          0.0238
 132       1.125e-01       2.400e-01       3.147e-06          0.0313
 133       8.250e-02       2.400e-01       3.276e-06          0.0410
 134       5.250e-02       2.400e-01       6.615e-07          0.0604
 135       2.250e-02       2.400e-01       3.319e-07          0.1313
Strip 17
 136       2.325e-01       2.933e-01       6.956e-09          0.0077
 137       2.025e-01       2.933e-01       1.310e-08          0.0125
 138       1.725e-01       2.933e-01       9.197e-08          0.0173
 139       1.425e-01       2.933e-01       1.051e-06          0.0231
 140       1.125e-01       2.933e-01       3.147e-06          0.0304
 141       8.250e-02       2.933e-01       3.276e-06          0.0400
 142       5.250e-02       2.933e-01       6.615e-07          0.0590
 143       2.250e-02       2.933e-01       3.319e-07          0.1288
Strip 18
 144       2.325e-01       3.467e-01       6.956e-09          0.0073
 145       2.025e-01       3.467e-01       1.310e-08          0.0119
 146       1.725e-01       3.467e-01       9.197e-08          0.0165
 147       1.425e-01       3.467e-01       1.051e-06          0.0222
 148       1.125e-01       3.467e-01       3.147e-06          0.0293
 149       8.250e-02       3.467e-01       3.276e-06          0.0386
 150       5.250e-02       3.467e-01       6.615e-07          0.0573
 151       2.250e-02       3.467e-01       3.319e-07          0.1255
Strip 19
 152       2.325e-01       4.000e-01       6.956e-09          0.0068
 153       2.025e-01       4.000e-01       1.310e-08          0.0112
 154       1.725e-01       4.000e-01       9.197e-08          0.0155
 155       1.425e-01       4.000e-01       1.051e-06          0.0209
 156       1.125e-01       4.000e-01       3.147e-06          0.0277
 157       8.250e-02       4.000e-01       3.276e-06          0.0368
 158       5.250e-02       4.000e-01       6.615e-07          0.0549
 159       2.250e-02       4.000e-01       3.319e-07          0.1211
Strip 20
 160       2.325e-01       4.533e-01       6.956e-09          0.0062
 161       2.025e-01       4.533e-01       1.310e-08          0.0101
 162       1.725e-01       4.533e-01       9.197e-08          0.0141
 163       1.425e-01       4.533e-01       1.051e-06          0.0192
 164       1.125e-01       4.533e-01       3.147e-06          0.0256
 165       8.250e-02       4.533e-01       3.276e-06          0.0342
 166       5.250e-02       4.533e-01       6.615e-07          0.0516
 167       2.250e-02       4.533e-01       3.319e-07          0.1152
Strip 21
 168       2.325e-01       5.067e-01       6.956e-09          0.0053
 169       2.025e-01       5.067e-01       1.310e-08          0.0087
 170       1.725e-01       5.067e-01       9.197e-08          0.0122
 171       1.425e-01       5.067e-01       1.051e-06          0.0168
 172       1.125e-01       5.067e-01       3.147e-06          0.0227
 173       8.250e-02       5.067e-01       3.276e-06          0.0306
 174       5.250e-02       5.067e-01       6.615e-07          0.0470
 175       2.250e-02       5.067e-01       3.319e-07          0.1070
Strip 22
 176       2.325e-01       5.600e-01       6.956e-09          0.0042
 177       2.025e-01       5.600e-01       1.310e-08          0.0069
 178       1.725e-01       5.600e-01       9.197e-08          0.0096
 179       1.425e-01       5.600e-01       1.051e-06          0.0134
 180       1.125e-01       5.600e-01       3.147e-06          0.0184
 181       8.250e-02       5.600e-01       3.276e-06          0.0252
 182       5.250e-02       5.600e-01       6.615e-07          0.0400
 183       2.250e-02       5.600e-01       3.319e-07          0.0947
Strip 23
 184       2.325e-01       6.133e-01       6.956e-09          0.0027
 185       2.025e-01       6.133e-01       1.310e-08          0.0044
 186       1.725e-01       6.133e-01       9.197e-08          0.0061
 187       1.425e-01       6.133e-01       1.051e-06          0.0085
 188       1.125e-01       6.133e-01       3.147e-06          0.0119
 189       8.250e-02       6.133e-01       3.276e-06          0.0163
 190       5.250e-02       6.133e-01       6.615e-07          0.0275
 191       2.250e-02       6.133e-01       3.319e-07          0.0730
Strip 24
 192       0.000e+00       0.000e+00       0.000e+00         -0.2997
 193       0.000e+00       0.000e+00       0.000e+00         -0.4810
 194       0.000e+00       0.000e+00       0.000e+00         -0.6673
 195       0.000e+00       0.000e+00       0.000e+00         -0.9186
 196       0.000e+00       0.000e+00       0.000e+00         -1.2662
 197       0.000e+00       0.000e+00       0.000e+00         -1.7887
 198       0.000e+00       0.000e+00       0.000e+00         -2.9970
 199       0.000e+00       0.000e+00       0.000e+00         -7.9430










