XFLR5 v6.02 Beta

NAC642A015 Wing
T1-54.4 m/s-VLM1-x0.000mm
QInf  =   54.400000 m/s
Alpha =   11.000000
Beta  =    0.000°
Phi   =    0.000°
Ctrl  =   18.000
CL    =    0.779459
Cy    =    0.000000
Cd    =    0.048905     ICd   =    0.035862     PCd   =    0.013043
Cl   = -1.23727e-17
Cm   =   -0.185286
ICn   =   -0.000000     PCn   =   -0.000000 
XCP   =    0.058118     YCP   =   -0.000000 
XNP   =    0.000000
Bend. =   56.629104

NAC642A015 Wing
  y-span        Chord      Ai         Cl        PCd          ICd        CmGeom      CmAirf      XTrtop    XTrBot      XCP       BM
   -0.6133     0.2400    -7.890    0.399918    0.006755    0.028477   -0.081516    0.019344     0.5257    0.7500    0.2021    0.0000
   -0.5600     0.2400    -7.136    0.565810    0.009613    0.036302   -0.124242    0.018075     0.1552    0.8082    0.2182    0.4992
   -0.5067     0.2400    -6.485    0.668710    0.011347    0.038866   -0.152960    0.014854     0.0506    0.8575    0.2279    1.7029
   -0.4533     0.2400    -5.937    0.739539    0.012334    0.039249   -0.173288    0.011945     0.0321    0.9059    0.2339    3.7371
   -0.4000     0.2400    -5.487    0.790682    0.013146    0.038700   -0.188057    0.009674     0.0262    0.9420    0.2378    6.6882
   -0.3467     0.2400    -5.123    0.828561    0.013779    0.037803   -0.198966    0.007975     0.0239    0.9614    0.2404   10.6180
   -0.2933     0.2400    -4.834    0.856933    0.014254    0.036841   -0.207086    0.006726     0.0221    0.9755    0.2421   15.5720
   -0.2400     0.2400    -4.608    0.878150    0.014609    0.035955   -0.213118    0.005816     0.0208    0.9860    0.2434   21.5844
   -0.1867     0.2400    -4.437    0.893737    0.014906    0.035210   -0.217522    0.005167     0.0201    0.9909    0.2442   28.6804
   -0.1333     0.2400    -4.315    0.904699    0.015135    0.034638   -0.220603    0.004721     0.0198    0.9927    0.2448   36.8786
   -0.0800     0.2400    -4.235    0.911685    0.015281    0.034252   -0.222559    0.004442     0.0195    0.9939    0.2451   46.1920
   -0.0267     0.2400    -4.197    0.915086    0.015352    0.034058   -0.223510    0.004308     0.0194    0.9945    0.2453   56.6291
    0.0267     0.2400    -4.197    0.915086    0.015352    0.034058   -0.223510    0.004308     0.0194    0.9945    0.2453   56.6291
    0.0800     0.2400    -4.235    0.911685    0.015281    0.034252   -0.222559    0.004442     0.0195    0.9939    0.2451   46.1920
    0.1333     0.2400    -4.315    0.904699    0.015135    0.034638   -0.220603    0.004721     0.0198    0.9927    0.2448   36.8786
    0.1867     0.2400    -4.437    0.893737    0.014906    0.035210   -0.217522    0.005167     0.0201    0.9909    0.2442   28.6804
    0.2400     0.2400    -4.608    0.878150    0.014609    0.035955   -0.213118    0.005816     0.0208    0.9860    0.2434   21.5844
    0.2933     0.2400    -4.834    0.856933    0.014254    0.036841   -0.207086    0.006726     0.0221    0.9755    0.2421   15.5720
    0.3467     0.2400    -5.123    0.828561    0.013779    0.037803   -0.198966    0.007975     0.0239    0.9614    0.2404   10.6180
    0.4000     0.2400    -5.487    0.790682    0.013146    0.038700   -0.188057    0.009674     0.0262    0.9420    0.2378    6.6882
    0.4533     0.2400    -5.937    0.739539    0.012334    0.039249   -0.173288    0.011945     0.0321    0.9059    0.2339    3.7371
    0.5067     0.2400    -6.485    0.668710    0.011347    0.038866   -0.152960    0.014854     0.0506    0.8575    0.2279    1.7029
    0.5600     0.2400    -7.136    0.565810    0.009613    0.036302   -0.124242    0.018075     0.1552    0.8082    0.2182    0.4992
    0.6133     0.2400    -7.890    0.399918    0.006755    0.028477   -0.081516    0.019344     0.5257    0.7500    0.2021    0.0000


Wing Cp Coefficients
 Panel     CtrlPt.x        CtrlPt.y        CtrlPt.z             Cp
NAC642A015 WingCp Coefficients
Strip 1
   8       2.325e-01      -5.600e-01       6.956e-09          0.0909
   9       2.025e-01      -5.600e-01       1.310e-08          0.1494
  10       1.725e-01      -5.600e-01       9.197e-08          0.2094
  11       1.425e-01      -5.600e-01       1.051e-06          0.2831
  12       1.125e-01      -5.600e-01       3.147e-06          0.3846
  13       8.250e-02      -5.600e-01       3.276e-06          0.5442
  14       5.250e-02      -5.600e-01       6.615e-07          0.8586
  15       2.250e-02      -5.600e-01       3.319e-07          2.0340
Strip 2
  16       2.325e-01      -5.067e-01       6.956e-09          0.1148
  17       2.025e-01      -5.067e-01       1.310e-08          0.1891
  18       1.725e-01      -5.067e-01       9.197e-08          0.2648
  19       1.425e-01      -5.067e-01       1.051e-06          0.3555
  20       1.125e-01      -5.067e-01       3.147e-06          0.4769
  21       8.250e-02      -5.067e-01       3.276e-06          0.6609
  22       5.250e-02      -5.067e-01       6.615e-07          1.0100
  23       2.250e-02      -5.067e-01       3.319e-07          2.2980
Strip 3
  24       2.325e-01      -4.533e-01       6.956e-09          0.1332
  25       2.025e-01      -4.533e-01       1.310e-08          0.2190
  26       1.725e-01      -4.533e-01       9.197e-08          0.3053
  27       1.425e-01      -4.533e-01       1.051e-06          0.4071
  28       1.125e-01      -4.533e-01       3.147e-06          0.5404
  29       8.250e-02      -4.533e-01       3.276e-06          0.7385
  30       5.250e-02      -4.533e-01       6.615e-07          1.1091
  31       2.250e-02      -4.533e-01       3.319e-07          2.4748
Strip 4
  32       2.325e-01      -4.000e-01       6.956e-09          0.1472
  33       2.025e-01      -4.000e-01       1.310e-08          0.2413
  34       1.725e-01      -4.000e-01       9.197e-08          0.3352
  35       1.425e-01      -4.000e-01       1.051e-06          0.4444
  36       1.125e-01      -4.000e-01       3.147e-06          0.5856
  37       8.250e-02      -4.000e-01       3.276e-06          0.7931
  38       5.250e-02      -4.000e-01       6.615e-07          1.1789
  39       2.250e-02      -4.000e-01       3.319e-07          2.6017
Strip 5
  40       2.325e-01      -3.467e-01       6.956e-09          0.1578
  41       2.025e-01      -3.467e-01       1.310e-08          0.2581
  42       1.725e-01      -3.467e-01       9.197e-08          0.3574
  43       1.425e-01      -3.467e-01       1.051e-06          0.4718
  44       1.125e-01      -3.467e-01       3.147e-06          0.6185
  45       8.250e-02      -3.467e-01       3.276e-06          0.8329
  46       5.250e-02      -3.467e-01       6.615e-07          1.2299
  47       2.250e-02      -3.467e-01       3.319e-07          2.6958
Strip 6
  48       2.325e-01      -2.933e-01       6.956e-09          0.1657
  49       2.025e-01      -2.933e-01       1.310e-08          0.2707
  50       1.725e-01      -2.933e-01       9.197e-08          0.3739
  51       1.425e-01      -2.933e-01       1.051e-06          0.4921
  52       1.125e-01      -2.933e-01       3.147e-06          0.6429
  53       8.250e-02      -2.933e-01       3.276e-06          0.8623
  54       5.250e-02      -2.933e-01       6.615e-07          1.2679
  55       2.250e-02      -2.933e-01       3.319e-07          2.7666
Strip 7
  56       2.325e-01      -2.400e-01       6.956e-09          0.1717
  57       2.025e-01      -2.400e-01       1.310e-08          0.2800
  58       1.725e-01      -2.400e-01       9.197e-08          0.3861
  59       1.425e-01      -2.400e-01       1.051e-06          0.5071
  60       1.125e-01      -2.400e-01       3.147e-06          0.6609
  61       8.250e-02      -2.400e-01       3.276e-06          0.8841
  62       5.250e-02      -2.400e-01       6.615e-07          1.2961
  63       2.250e-02      -2.400e-01       3.319e-07          2.8199
Strip 8
  64       2.325e-01      -1.867e-01       6.956e-09          0.1760
  65       2.025e-01      -1.867e-01       1.310e-08          0.2869
  66       1.725e-01      -1.867e-01       9.197e-08          0.3951
  67       1.425e-01      -1.867e-01       1.051e-06          0.5180
  68       1.125e-01      -1.867e-01       3.147e-06          0.6740
  69       8.250e-02      -1.867e-01       3.276e-06          0.9000
  70       5.250e-02      -1.867e-01       6.615e-07          1.3169
  71       2.250e-02      -1.867e-01       3.319e-07          2.8592
Strip 9
  72       2.325e-01      -1.333e-01       6.956e-09          0.1791
  73       2.025e-01      -1.333e-01       1.310e-08          0.2916
  74       1.725e-01      -1.333e-01       9.197e-08          0.4013
  75       1.425e-01      -1.333e-01       1.051e-06          0.5257
  76       1.125e-01      -1.333e-01       3.147e-06          0.6832
  77       8.250e-02      -1.333e-01       3.276e-06          0.9111
  78       5.250e-02      -1.333e-01       6.615e-07          1.3314
  79       2.250e-02      -1.333e-01       3.319e-07          2.8869
Strip 10
  80       2.325e-01      -8.000e-02       6.956e-09          0.1810
  81       2.025e-01      -8.000e-02       1.310e-08          0.2947
  82       1.725e-01      -8.000e-02       9.197e-08          0.4052
  83       1.425e-01      -8.000e-02       1.051e-06          0.5305
  84       1.125e-01      -8.000e-02       3.147e-06          0.6890
  85       8.250e-02      -8.000e-02       3.276e-06          0.9182
  86       5.250e-02      -8.000e-02       6.615e-07          1.3407
  87       2.250e-02      -8.000e-02       3.319e-07          2.9047
Strip 11
  88       2.325e-01      -2.667e-02       6.956e-09          0.1820
  89       2.025e-01      -2.667e-02       1.310e-08          0.2961
  90       1.725e-01      -2.667e-02       9.197e-08          0.4072
  91       1.425e-01      -2.667e-02       1.051e-06          0.5329
  92       1.125e-01      -2.667e-02       3.147e-06          0.6919
  93       8.250e-02      -2.667e-02       3.276e-06          0.9216
  94       5.250e-02      -2.667e-02       6.615e-07          1.3452
  95       2.250e-02      -2.667e-02       3.319e-07          2.9133
Strip 12
  96       2.325e-01       2.667e-02       6.956e-09          0.1820
  97       2.025e-01       2.667e-02       1.310e-08          0.2961
  98       1.725e-01       2.667e-02       9.197e-08          0.4072
  99       1.425e-01       2.667e-02       1.051e-06          0.5329
 100       1.125e-01       2.667e-02       3.147e-06          0.6919
 101       8.250e-02       2.667e-02       3.276e-06          0.9216
 102       5.250e-02       2.667e-02       6.615e-07          1.3452
 103       2.250e-02       2.667e-02       3.319e-07          2.9133
Strip 13
 104       2.325e-01       8.000e-02       6.956e-09          0.1810
 105       2.025e-01       8.000e-02       1.310e-08          0.2947
 106       1.725e-01       8.000e-02       9.197e-08          0.4052
 107       1.425e-01       8.000e-02       1.051e-06          0.5305
 108       1.125e-01       8.000e-02       3.147e-06          0.6890
 109       8.250e-02       8.000e-02       3.276e-06          0.9182
 110       5.250e-02       8.000e-02       6.615e-07          1.3407
 111       2.250e-02       8.000e-02       3.319e-07          2.9047
Strip 14
 112       2.325e-01       1.333e-01       6.956e-09          0.1791
 113       2.025e-01       1.333e-01       1.310e-08          0.2916
 114       1.725e-01       1.333e-01       9.197e-08          0.4013
 115       1.425e-01       1.333e-01       1.051e-06          0.5257
 116       1.125e-01       1.333e-01       3.147e-06          0.6832
 117       8.250e-02       1.333e-01       3.276e-06          0.9111
 118       5.250e-02       1.333e-01       6.615e-07          1.3314
 119       2.250e-02       1.333e-01       3.319e-07          2.8869
Strip 15
 120       2.325e-01       1.867e-01       6.956e-09          0.1760
 121       2.025e-01       1.867e-01       1.310e-08          0.2869
 122       1.725e-01       1.867e-01       9.197e-08          0.3951
 123       1.425e-01       1.867e-01       1.051e-06          0.5180
 124       1.125e-01       1.867e-01       3.147e-06          0.6740
 125       8.250e-02       1.867e-01       3.276e-06          0.9000
 126       5.250e-02       1.867e-01       6.615e-07          1.3169
 127       2.250e-02       1.867e-01       3.319e-07          2.8592
Strip 16
 128       2.325e-01       2.400e-01       6.956e-09          0.1717
 129       2.025e-01       2.400e-01       1.310e-08          0.2800
 130       1.725e-01       2.400e-01       9.197e-08          0.3861
 131       1.425e-01       2.400e-01       1.051e-06          0.5071
 132       1.125e-01       2.400e-01       3.147e-06          0.6609
 133       8.250e-02       2.400e-01       3.276e-06          0.8841
 134       5.250e-02       2.400e-01       6.615e-07          1.2961
 135       2.250e-02       2.400e-01       3.319e-07          2.8199
Strip 17
 136       2.325e-01       2.933e-01       6.956e-09          0.1657
 137       2.025e-01       2.933e-01       1.310e-08          0.2707
 138       1.725e-01       2.933e-01       9.197e-08          0.3739
 139       1.425e-01       2.933e-01       1.051e-06          0.4921
 140       1.125e-01       2.933e-01       3.147e-06          0.6429
 141       8.250e-02       2.933e-01       3.276e-06          0.8623
 142       5.250e-02       2.933e-01       6.615e-07          1.2679
 143       2.250e-02       2.933e-01       3.319e-07          2.7666
Strip 18
 144       2.325e-01       3.467e-01       6.956e-09          0.1578
 145       2.025e-01       3.467e-01       1.310e-08          0.2581
 146       1.725e-01       3.467e-01       9.197e-08          0.3574
 147       1.425e-01       3.467e-01       1.051e-06          0.4718
 148       1.125e-01       3.467e-01       3.147e-06          0.6185
 149       8.250e-02       3.467e-01       3.276e-06          0.8329
 150       5.250e-02       3.467e-01       6.615e-07          1.2299
 151       2.250e-02       3.467e-01       3.319e-07          2.6958
Strip 19
 152       2.325e-01       4.000e-01       6.956e-09          0.1472
 153       2.025e-01       4.000e-01       1.310e-08          0.2413
 154       1.725e-01       4.000e-01       9.197e-08          0.3352
 155       1.425e-01       4.000e-01       1.051e-06          0.4444
 156       1.125e-01       4.000e-01       3.147e-06          0.5856
 157       8.250e-02       4.000e-01       3.276e-06          0.7931
 158       5.250e-02       4.000e-01       6.615e-07          1.1789
 159       2.250e-02       4.000e-01       3.319e-07          2.6017
Strip 20
 160       2.325e-01       4.533e-01       6.956e-09          0.1332
 161       2.025e-01       4.533e-01       1.310e-08          0.2190
 162       1.725e-01       4.533e-01       9.197e-08          0.3053
 163       1.425e-01       4.533e-01       1.051e-06          0.4071
 164       1.125e-01       4.533e-01       3.147e-06          0.5404
 165       8.250e-02       4.533e-01       3.276e-06          0.7385
 166       5.250e-02       4.533e-01       6.615e-07          1.1091
 167       2.250e-02       4.533e-01       3.319e-07          2.4748
Strip 21
 168       2.325e-01       5.067e-01       6.956e-09          0.1148
 169       2.025e-01       5.067e-01       1.310e-08          0.1891
 170       1.725e-01       5.067e-01       9.197e-08          0.2648
 171       1.425e-01       5.067e-01       1.051e-06          0.3555
 172       1.125e-01       5.067e-01       3.147e-06          0.4769
 173       8.250e-02       5.067e-01       3.276e-06          0.6609
 174       5.250e-02       5.067e-01       6.615e-07          1.0100
 175       2.250e-02       5.067e-01       3.319e-07          2.2980
Strip 22
 176       2.325e-01       5.600e-01       6.956e-09          0.0909
 177       2.025e-01       5.600e-01       1.310e-08          0.1494
 178       1.725e-01       5.600e-01       9.197e-08          0.2094
 179       1.425e-01       5.600e-01       1.051e-06          0.2831
 180       1.125e-01       5.600e-01       3.147e-06          0.3846
 181       8.250e-02       5.600e-01       3.276e-06          0.5442
 182       5.250e-02       5.600e-01       6.615e-07          0.8586
 183       2.250e-02       5.600e-01       3.319e-07          2.0340
Strip 23
 184       2.325e-01       6.133e-01       6.956e-09          0.0593
 185       2.025e-01       6.133e-01       1.310e-08          0.0957
 186       1.725e-01       6.133e-01       9.197e-08          0.1330
 187       1.425e-01       6.133e-01       1.051e-06          0.1795
 188       1.125e-01       6.133e-01       3.147e-06          0.2455
 189       8.250e-02       6.133e-01       3.276e-06          0.3548
 190       5.250e-02       6.133e-01       6.615e-07          0.5917
 191       2.250e-02       6.133e-01       3.319e-07          1.5680
Strip 24
 192       0.000e+00       0.000e+00       0.000e+00         -3.3634
 193       0.000e+00       0.000e+00       0.000e+00         -5.4309
 194       0.000e+00       0.000e+00       0.000e+00         -7.5490
 195       0.000e+00       0.000e+00       0.000e+00        -10.1859
 196       0.000e+00       0.000e+00       0.000e+00        -13.9275
 197       0.000e+00       0.000e+00       0.000e+00        -20.1310
 198       0.000e+00       0.000e+00       0.000e+00        -33.5742
 199       0.000e+00       0.000e+00       0.000e+00        -88.9720










