XFLR5 v6.02 Beta

NAC642A015 Wing
T1-54.4 m/s-VLM1-x0.000mm
QInf  =   54.400000 m/s
Alpha =   12.500000
Beta  =    0.000°
Phi   =    0.000°
Ctrl  =   18.000
CL    =    0.879624
Cy    =    0.000000
Cd    =    0.061422     ICd   =    0.045893     PCd   =    0.015529
Cl   = -7.24752e-18
Cm   =   -0.209031
ICn   =   -0.000000     PCn   =   -0.000000 
XCP   =    0.058417     YCP   =    0.000000 
XNP   =    0.000000
Bend. =   63.886778

NAC642A015 Wing
  y-span        Chord      Ai         Cl        PCd          ICd        CmGeom      CmAirf      XTrtop    XTrBot      XCP       BM
   -0.6133     0.2400    -8.885    0.450036    0.006880    0.036441   -0.091963    0.021823     0.4997    0.7634    0.2021    0.0000
   -0.5600     0.2400    -8.039    0.637222    0.010942    0.046456   -0.140165    0.020392     0.0640    0.8407    0.2182    0.5632
   -0.5067     0.2400    -7.308    0.753619    0.012550    0.049736   -0.172563    0.016758     0.0300    0.9175    0.2279    1.9211
   -0.4533     0.2400    -6.692    0.833913    0.013868    0.050227   -0.195496    0.013476     0.0235    0.9640    0.2339    4.2161
   -0.4000     0.2400    -6.185    0.891995    0.014870    0.049524   -0.212158    0.010914     0.0202    0.9906    0.2378    7.5454
   -0.3467     0.2400    -5.776    0.935076    0.015770    0.048376   -0.224465    0.008998     0.0188    0.9979    0.2404   11.9788
   -0.2933     0.2400    -5.450    0.967380    0.016727    0.047146   -0.233626    0.007588     0.0178    1.0000    0.2421   17.5677
   -0.2400     0.2400    -5.196    0.991559    0.017710    0.046012   -0.240431    0.006562     0.0171    1.0000    0.2434   24.3506
   -0.1867     0.2400    -5.003    1.009334    0.018519    0.045058   -0.245399    0.005829     0.0167    1.0000    0.2442   32.3561
   -0.1333     0.2400    -4.865    1.021840    0.019114    0.044326   -0.248875    0.005327     0.0164    1.0000    0.2448   41.6050
   -0.0800     0.2400    -4.776    1.029814    0.019562    0.043832   -0.251082    0.005012     0.0162    1.0000    0.2451   52.1121
   -0.0267     0.2400    -4.732    1.033697    0.019838    0.043584   -0.252154    0.004861     0.0161    1.0000    0.2453   63.8868
    0.0267     0.2400    -4.732    1.033697    0.019838    0.043584   -0.252154    0.004861     0.0161    1.0000    0.2453   63.8868
    0.0800     0.2400    -4.776    1.029814    0.019562    0.043832   -0.251082    0.005012     0.0162    1.0000    0.2451   52.1121
    0.1333     0.2400    -4.865    1.021840    0.019114    0.044326   -0.248875    0.005327     0.0164    1.0000    0.2448   41.6050
    0.1867     0.2400    -5.003    1.009334    0.018519    0.045058   -0.245399    0.005829     0.0167    1.0000    0.2442   32.3561
    0.2400     0.2400    -5.196    0.991559    0.017710    0.046012   -0.240431    0.006562     0.0171    1.0000    0.2434   24.3506
    0.2933     0.2400    -5.450    0.967380    0.016727    0.047146   -0.233626    0.007588     0.0178    1.0000    0.2421   17.5677
    0.3467     0.2400    -5.776    0.935076    0.015770    0.048376   -0.224465    0.008998     0.0188    0.9979    0.2404   11.9788
    0.4000     0.2400    -6.185    0.891995    0.014870    0.049524   -0.212158    0.010914     0.0202    0.9906    0.2378    7.5454
    0.4533     0.2400    -6.692    0.833913    0.013868    0.050227   -0.195496    0.013476     0.0235    0.9640    0.2339    4.2161
    0.5067     0.2400    -7.308    0.753619    0.012550    0.049736   -0.172563    0.016758     0.0300    0.9175    0.2279    1.9211
    0.5600     0.2400    -8.039    0.637222    0.010942    0.046456   -0.140165    0.020392     0.0640    0.8407    0.2182    0.5632
    0.6133     0.2400    -8.885    0.450036    0.006880    0.036441   -0.091963    0.021823     0.4997    0.7634    0.2021    0.0000


Wing Cp Coefficients
 Panel     CtrlPt.x        CtrlPt.y        CtrlPt.z             Cp
NAC642A015 WingCp Coefficients
Strip 1
   8       2.325e-01      -5.600e-01       6.956e-09          0.1026
   9       2.025e-01      -5.600e-01       1.310e-08          0.1685
  10       1.725e-01      -5.600e-01       9.197e-08          0.2363
  11       1.425e-01      -5.600e-01       1.051e-06          0.3193
  12       1.125e-01      -5.600e-01       3.147e-06          0.4339
  13       8.250e-02      -5.600e-01       3.276e-06          0.6140
  14       5.250e-02      -5.600e-01       6.615e-07          0.9686
  15       2.250e-02      -5.600e-01       3.319e-07          2.2946
Strip 2
  16       2.325e-01      -5.067e-01       6.956e-09          0.1296
  17       2.025e-01      -5.067e-01       1.310e-08          0.2133
  18       1.725e-01      -5.067e-01       9.197e-08          0.2987
  19       1.425e-01      -5.067e-01       1.051e-06          0.4010
  20       1.125e-01      -5.067e-01       3.147e-06          0.5380
  21       8.250e-02      -5.067e-01       3.276e-06          0.7456
  22       5.250e-02      -5.067e-01       6.615e-07          1.1395
  23       2.250e-02      -5.067e-01       3.319e-07          2.5926
Strip 3
  24       2.325e-01      -4.533e-01       6.956e-09          0.1503
  25       2.025e-01      -4.533e-01       1.310e-08          0.2470
  26       1.725e-01      -4.533e-01       9.197e-08          0.3445
  27       1.425e-01      -4.533e-01       1.051e-06          0.4592
  28       1.125e-01      -4.533e-01       3.147e-06          0.6096
  29       8.250e-02      -4.533e-01       3.276e-06          0.8332
  30       5.250e-02      -4.533e-01       6.615e-07          1.2513
  31       2.250e-02      -4.533e-01       3.319e-07          2.7920
Strip 4
  32       2.325e-01      -4.000e-01       6.956e-09          0.1660
  33       2.025e-01      -4.000e-01       1.310e-08          0.2723
  34       1.725e-01      -4.000e-01       9.197e-08          0.3782
  35       1.425e-01      -4.000e-01       1.051e-06          0.5013
  36       1.125e-01      -4.000e-01       3.147e-06          0.6606
  37       8.250e-02      -4.000e-01       3.276e-06          0.8948
  38       5.250e-02      -4.000e-01       6.615e-07          1.3300
  39       2.250e-02      -4.000e-01       3.319e-07          2.9351
Strip 5
  40       2.325e-01      -3.467e-01       6.956e-09          0.1780
  41       2.025e-01      -3.467e-01       1.310e-08          0.2912
  42       1.725e-01      -3.467e-01       9.197e-08          0.4032
  43       1.425e-01      -3.467e-01       1.051e-06          0.5322
  44       1.125e-01      -3.467e-01       3.147e-06          0.6978
  45       8.250e-02      -3.467e-01       3.276e-06          0.9396
  46       5.250e-02      -3.467e-01       6.615e-07          1.3876
  47       2.250e-02      -3.467e-01       3.319e-07          3.0413
Strip 6
  48       2.325e-01      -2.933e-01       6.956e-09          0.1870
  49       2.025e-01      -2.933e-01       1.310e-08          0.3054
  50       1.725e-01      -2.933e-01       9.197e-08          0.4218
  51       1.425e-01      -2.933e-01       1.051e-06          0.5551
  52       1.125e-01      -2.933e-01       3.147e-06          0.7252
  53       8.250e-02      -2.933e-01       3.276e-06          0.9728
  54       5.250e-02      -2.933e-01       6.615e-07          1.4304
  55       2.250e-02      -2.933e-01       3.319e-07          3.1212
Strip 7
  56       2.325e-01      -2.400e-01       6.956e-09          0.1937
  57       2.025e-01      -2.400e-01       1.310e-08          0.3159
  58       1.725e-01      -2.400e-01       9.197e-08          0.4356
  59       1.425e-01      -2.400e-01       1.051e-06          0.5721
  60       1.125e-01      -2.400e-01       3.147e-06          0.7456
  61       8.250e-02      -2.400e-01       3.276e-06          0.9974
  62       5.250e-02      -2.400e-01       6.615e-07          1.4623
  63       2.250e-02      -2.400e-01       3.319e-07          3.1813
Strip 8
  64       2.325e-01      -1.867e-01       6.956e-09          0.1986
  65       2.025e-01      -1.867e-01       1.310e-08          0.3236
  66       1.725e-01      -1.867e-01       9.197e-08          0.4457
  67       1.425e-01      -1.867e-01       1.051e-06          0.5844
  68       1.125e-01      -1.867e-01       3.147e-06          0.7604
  69       8.250e-02      -1.867e-01       3.276e-06          1.0153
  70       5.250e-02      -1.867e-01       6.615e-07          1.4856
  71       2.250e-02      -1.867e-01       3.319e-07          3.2256
Strip 9
  72       2.325e-01      -1.333e-01       6.956e-09          0.2020
  73       2.025e-01      -1.333e-01       1.310e-08          0.3290
  74       1.725e-01      -1.333e-01       9.197e-08          0.4527
  75       1.425e-01      -1.333e-01       1.051e-06          0.5930
  76       1.125e-01      -1.333e-01       3.147e-06          0.7707
  77       8.250e-02      -1.333e-01       3.276e-06          1.0279
  78       5.250e-02      -1.333e-01       6.615e-07          1.5021
  79       2.250e-02      -1.333e-01       3.319e-07          3.2569
Strip 10
  80       2.325e-01      -8.000e-02       6.956e-09          0.2042
  81       2.025e-01      -8.000e-02       1.310e-08          0.3324
  82       1.725e-01      -8.000e-02       9.197e-08          0.4572
  83       1.425e-01      -8.000e-02       1.051e-06          0.5985
  84       1.125e-01      -8.000e-02       3.147e-06          0.7773
  85       8.250e-02      -8.000e-02       3.276e-06          1.0359
  86       5.250e-02      -8.000e-02       6.615e-07          1.5125
  87       2.250e-02      -8.000e-02       3.319e-07          3.2770
Strip 11
  88       2.325e-01      -2.667e-02       6.956e-09          0.2053
  89       2.025e-01      -2.667e-02       1.310e-08          0.3341
  90       1.725e-01      -2.667e-02       9.197e-08          0.4594
  91       1.425e-01      -2.667e-02       1.051e-06          0.6012
  92       1.125e-01      -2.667e-02       3.147e-06          0.7805
  93       8.250e-02      -2.667e-02       3.276e-06          1.0398
  94       5.250e-02      -2.667e-02       6.615e-07          1.5176
  95       2.250e-02      -2.667e-02       3.319e-07          3.2867
Strip 12
  96       2.325e-01       2.667e-02       6.956e-09          0.2053
  97       2.025e-01       2.667e-02       1.310e-08          0.3341
  98       1.725e-01       2.667e-02       9.197e-08          0.4594
  99       1.425e-01       2.667e-02       1.051e-06          0.6012
 100       1.125e-01       2.667e-02       3.147e-06          0.7805
 101       8.250e-02       2.667e-02       3.276e-06          1.0398
 102       5.250e-02       2.667e-02       6.615e-07          1.5176
 103       2.250e-02       2.667e-02       3.319e-07          3.2867
Strip 13
 104       2.325e-01       8.000e-02       6.956e-09          0.2042
 105       2.025e-01       8.000e-02       1.310e-08          0.3324
 106       1.725e-01       8.000e-02       9.197e-08          0.4572
 107       1.425e-01       8.000e-02       1.051e-06          0.5985
 108       1.125e-01       8.000e-02       3.147e-06          0.7773
 109       8.250e-02       8.000e-02       3.276e-06          1.0359
 110       5.250e-02       8.000e-02       6.615e-07          1.5125
 111       2.250e-02       8.000e-02       3.319e-07          3.2770
Strip 14
 112       2.325e-01       1.333e-01       6.956e-09          0.2020
 113       2.025e-01       1.333e-01       1.310e-08          0.3290
 114       1.725e-01       1.333e-01       9.197e-08          0.4527
 115       1.425e-01       1.333e-01       1.051e-06          0.5930
 116       1.125e-01       1.333e-01       3.147e-06          0.7707
 117       8.250e-02       1.333e-01       3.276e-06          1.0279
 118       5.250e-02       1.333e-01       6.615e-07          1.5021
 119       2.250e-02       1.333e-01       3.319e-07          3.2569
Strip 15
 120       2.325e-01       1.867e-01       6.956e-09          0.1986
 121       2.025e-01       1.867e-01       1.310e-08          0.3236
 122       1.725e-01       1.867e-01       9.197e-08          0.4457
 123       1.425e-01       1.867e-01       1.051e-06          0.5844
 124       1.125e-01       1.867e-01       3.147e-06          0.7604
 125       8.250e-02       1.867e-01       3.276e-06          1.0153
 126       5.250e-02       1.867e-01       6.615e-07          1.4856
 127       2.250e-02       1.867e-01       3.319e-07          3.2256
Strip 16
 128       2.325e-01       2.400e-01       6.956e-09          0.1937
 129       2.025e-01       2.400e-01       1.310e-08          0.3159
 130       1.725e-01       2.400e-01       9.197e-08          0.4356
 131       1.425e-01       2.400e-01       1.051e-06          0.5721
 132       1.125e-01       2.400e-01       3.147e-06          0.7456
 133       8.250e-02       2.400e-01       3.276e-06          0.9974
 134       5.250e-02       2.400e-01       6.615e-07          1.4623
 135       2.250e-02       2.400e-01       3.319e-07          3.1813
Strip 17
 136       2.325e-01       2.933e-01       6.956e-09          0.1870
 137       2.025e-01       2.933e-01       1.310e-08          0.3054
 138       1.725e-01       2.933e-01       9.197e-08          0.4218
 139       1.425e-01       2.933e-01       1.051e-06          0.5551
 140       1.125e-01       2.933e-01       3.147e-06          0.7252
 141       8.250e-02       2.933e-01       3.276e-06          0.9728
 142       5.250e-02       2.933e-01       6.615e-07          1.4304
 143       2.250e-02       2.933e-01       3.319e-07          3.1212
Strip 18
 144       2.325e-01       3.467e-01       6.956e-09          0.1780
 145       2.025e-01       3.467e-01       1.310e-08          0.2912
 146       1.725e-01       3.467e-01       9.197e-08          0.4032
 147       1.425e-01       3.467e-01       1.051e-06          0.5322
 148       1.125e-01       3.467e-01       3.147e-06          0.6978
 149       8.250e-02       3.467e-01       3.276e-06          0.9396
 150       5.250e-02       3.467e-01       6.615e-07          1.3876
 151       2.250e-02       3.467e-01       3.319e-07          3.0413
Strip 19
 152       2.325e-01       4.000e-01       6.956e-09          0.1660
 153       2.025e-01       4.000e-01       1.310e-08          0.2723
 154       1.725e-01       4.000e-01       9.197e-08          0.3782
 155       1.425e-01       4.000e-01       1.051e-06          0.5013
 156       1.125e-01       4.000e-01       3.147e-06          0.6606
 157       8.250e-02       4.000e-01       3.276e-06          0.8948
 158       5.250e-02       4.000e-01       6.615e-07          1.3300
 159       2.250e-02       4.000e-01       3.319e-07          2.9351
Strip 20
 160       2.325e-01       4.533e-01       6.956e-09          0.1503
 161       2.025e-01       4.533e-01       1.310e-08          0.2470
 162       1.725e-01       4.533e-01       9.197e-08          0.3445
 163       1.425e-01       4.533e-01       1.051e-06          0.4592
 164       1.125e-01       4.533e-01       3.147e-06          0.6096
 165       8.250e-02       4.533e-01       3.276e-06          0.8332
 166       5.250e-02       4.533e-01       6.615e-07          1.2513
 167       2.250e-02       4.533e-01       3.319e-07          2.7920
Strip 21
 168       2.325e-01       5.067e-01       6.956e-09          0.1296
 169       2.025e-01       5.067e-01       1.310e-08          0.2133
 170       1.725e-01       5.067e-01       9.197e-08          0.2987
 171       1.425e-01       5.067e-01       1.051e-06          0.4010
 172       1.125e-01       5.067e-01       3.147e-06          0.5380
 173       8.250e-02       5.067e-01       3.276e-06          0.7456
 174       5.250e-02       5.067e-01       6.615e-07          1.1395
 175       2.250e-02       5.067e-01       3.319e-07          2.5926
Strip 22
 176       2.325e-01       5.600e-01       6.956e-09          0.1026
 177       2.025e-01       5.600e-01       1.310e-08          0.1685
 178       1.725e-01       5.600e-01       9.197e-08          0.2363
 179       1.425e-01       5.600e-01       1.051e-06          0.3193
 180       1.125e-01       5.600e-01       3.147e-06          0.4339
 181       8.250e-02       5.600e-01       3.276e-06          0.6140
 182       5.250e-02       5.600e-01       6.615e-07          0.9686
 183       2.250e-02       5.600e-01       3.319e-07          2.2946
Strip 23
 184       2.325e-01       6.133e-01       6.956e-09          0.0669
 185       2.025e-01       6.133e-01       1.310e-08          0.1080
 186       1.725e-01       6.133e-01       9.197e-08          0.1501
 187       1.425e-01       6.133e-01       1.051e-06          0.2025
 188       1.125e-01       6.133e-01       3.147e-06          0.2769
 189       8.250e-02       6.133e-01       3.276e-06          0.4003
 190       5.250e-02       6.133e-01       6.615e-07          0.6675
 191       2.250e-02       6.133e-01       3.319e-07          1.7690
Strip 24
 192       0.000e+00       0.000e+00       0.000e+00         -3.7736
 193       0.000e+00       0.000e+00       0.000e+00         -6.0936
 194       0.000e+00       0.000e+00       0.000e+00         -8.4704
 195       0.000e+00       0.000e+00       0.000e+00        -11.4266
 196       0.000e+00       0.000e+00       0.000e+00        -15.6225
 197       0.000e+00       0.000e+00       0.000e+00        -22.5869
 198       0.000e+00       0.000e+00       0.000e+00        -37.6680
 199       0.000e+00       0.000e+00       0.000e+00        -99.8205










