XFLR5 v6.02 Beta

NAC642A015 Wing
T1-54.4 m/s-VLM1-x0.000mm
QInf  =   54.400000 m/s
Alpha =   -0.500000
Beta  =    0.000°
Phi   =    0.000°
Ctrl  =   18.000
CL    =   -0.036260
Cy    =    0.000000
Cd    =    0.006502     ICd   =    0.000076     PCd   =    0.006425
Cl   = -1.72296e-19
Cm   =  0.00862016
ICn   =    0.000000     PCn   =   -0.000000 
XCP   =    0.057058     YCP   =    0.000000 
XNP   =    0.000000
Bend. =   -2.636501

NAC642A015 Wing
  y-span        Chord      Ai         Cl        PCd          ICd        CmGeom      CmAirf      XTrtop    XTrBot      XCP       BM
   -0.6133     0.2400     0.370   -0.018784    0.006437    0.000061    0.003791   -0.000904     0.6572    0.6497    0.2018    0.0000
   -0.5600     0.2400     0.334   -0.026503    0.006432    0.000077    0.005779   -0.000847     0.6589    0.6481    0.2180   -0.0232
   -0.5067     0.2400     0.303   -0.031251    0.006429    0.000083    0.007115   -0.000698     0.6600    0.6471    0.2277   -0.0793
   -0.4533     0.2400     0.277   -0.034495    0.006426    0.000084    0.008061   -0.000563     0.6608    0.6464    0.2337   -0.1740
   -0.4000     0.2400     0.256   -0.036823    0.006425    0.000082    0.008749   -0.000457     0.6613    0.6459    0.2376   -0.3114
   -0.3467     0.2400     0.239   -0.038538    0.006424    0.000080    0.009257   -0.000378     0.6617    0.6456    0.2402   -0.4943
   -0.2933     0.2400     0.226   -0.039818    0.006423    0.000078    0.009635   -0.000320     0.6620    0.6453    0.2420   -0.7250
   -0.2400     0.2400     0.215   -0.040772    0.006422    0.000077    0.009916   -0.000277     0.6622    0.6451    0.2432   -1.0049
   -0.1867     0.2400     0.207   -0.041471    0.006422    0.000075    0.010121   -0.000247     0.6624    0.6450    0.2440   -1.3353
   -0.1333     0.2400     0.201   -0.041962    0.006422    0.000074    0.010264   -0.000226     0.6625    0.6449    0.2446   -1.7170
   -0.0800     0.2400     0.198   -0.042275    0.006421    0.000073    0.010355   -0.000213     0.6626    0.6448    0.2450   -2.1506
   -0.0267     0.2400     0.196   -0.042427    0.006421    0.000072    0.010399   -0.000207     0.6626    0.6448    0.2451   -2.6365
    0.0267     0.2400     0.196   -0.042427    0.006421    0.000072    0.010399   -0.000207     0.6626    0.6448    0.2451   -2.6365
    0.0800     0.2400     0.198   -0.042275    0.006421    0.000073    0.010355   -0.000213     0.6626    0.6448    0.2450   -2.1506
    0.1333     0.2400     0.201   -0.041962    0.006422    0.000074    0.010264   -0.000226     0.6625    0.6449    0.2446   -1.7170
    0.1867     0.2400     0.207   -0.041471    0.006422    0.000075    0.010121   -0.000247     0.6624    0.6450    0.2440   -1.3353
    0.2400     0.2400     0.215   -0.040772    0.006422    0.000077    0.009916   -0.000277     0.6622    0.6451    0.2432   -1.0049
    0.2933     0.2400     0.226   -0.039818    0.006423    0.000078    0.009635   -0.000320     0.6620    0.6453    0.2420   -0.7250
    0.3467     0.2400     0.239   -0.038538    0.006424    0.000080    0.009257   -0.000378     0.6617    0.6456    0.2402   -0.4943
    0.4000     0.2400     0.256   -0.036823    0.006425    0.000082    0.008749   -0.000457     0.6613    0.6459    0.2376   -0.3114
    0.4533     0.2400     0.277   -0.034495    0.006426    0.000084    0.008061   -0.000563     0.6608    0.6464    0.2337   -0.1740
    0.5067     0.2400     0.303   -0.031251    0.006429    0.000083    0.007115   -0.000698     0.6600    0.6471    0.2277   -0.0793
    0.5600     0.2400     0.334   -0.026503    0.006432    0.000077    0.005779   -0.000847     0.6589    0.6481    0.2180   -0.0232
    0.6133     0.2400     0.370   -0.018784    0.006437    0.000061    0.003791   -0.000904     0.6572    0.6497    0.2018    0.0000


Wing Cp Coefficients
 Panel     CtrlPt.x        CtrlPt.y        CtrlPt.z             Cp
NAC642A015 WingCp Coefficients
Strip 1
   8       2.325e-01      -5.600e-01       6.956e-09         -0.0043
   9       2.025e-01      -5.600e-01       1.310e-08         -0.0070
  10       1.725e-01      -5.600e-01       9.197e-08         -0.0099
  11       1.425e-01      -5.600e-01       1.051e-06         -0.0130
  12       1.125e-01      -5.600e-01       3.147e-06         -0.0174
  13       8.250e-02      -5.600e-01       3.276e-06         -0.0255
  14       5.250e-02      -5.600e-01       6.615e-07         -0.0400
  15       2.250e-02      -5.600e-01       3.319e-07         -0.0949
Strip 2
  16       2.325e-01      -5.067e-01       6.956e-09         -0.0054
  17       2.025e-01      -5.067e-01       1.310e-08         -0.0089
  18       1.725e-01      -5.067e-01       9.197e-08         -0.0125
  19       1.425e-01      -5.067e-01       1.051e-06         -0.0163
  20       1.125e-01      -5.067e-01       3.147e-06         -0.0217
  21       8.250e-02      -5.067e-01       3.276e-06         -0.0310
  22       5.250e-02      -5.067e-01       6.615e-07         -0.0471
  23       2.250e-02      -5.067e-01       3.319e-07         -0.1072
Strip 3
  24       2.325e-01      -4.533e-01       6.956e-09         -0.0062
  25       2.025e-01      -4.533e-01       1.310e-08         -0.0103
  26       1.725e-01      -4.533e-01       9.197e-08         -0.0144
  27       1.425e-01      -4.533e-01       1.051e-06         -0.0187
  28       1.125e-01      -4.533e-01       3.147e-06         -0.0247
  29       8.250e-02      -4.533e-01       3.276e-06         -0.0346
  30       5.250e-02      -4.533e-01       6.615e-07         -0.0517
  31       2.250e-02      -4.533e-01       3.319e-07         -0.1154
Strip 4
  32       2.325e-01      -4.000e-01       6.956e-09         -0.0069
  33       2.025e-01      -4.000e-01       1.310e-08         -0.0113
  34       1.725e-01      -4.000e-01       9.197e-08         -0.0158
  35       1.425e-01      -4.000e-01       1.051e-06         -0.0205
  36       1.125e-01      -4.000e-01       3.147e-06         -0.0268
  37       8.250e-02      -4.000e-01       3.276e-06         -0.0371
  38       5.250e-02      -4.000e-01       6.615e-07         -0.0550
  39       2.250e-02      -4.000e-01       3.319e-07         -0.1213
Strip 5
  40       2.325e-01      -3.467e-01       6.956e-09         -0.0074
  41       2.025e-01      -3.467e-01       1.310e-08         -0.0121
  42       1.725e-01      -3.467e-01       9.197e-08         -0.0168
  43       1.425e-01      -3.467e-01       1.051e-06         -0.0218
  44       1.125e-01      -3.467e-01       3.147e-06         -0.0283
  45       8.250e-02      -3.467e-01       3.276e-06         -0.0390
  46       5.250e-02      -3.467e-01       6.615e-07         -0.0573
  47       2.250e-02      -3.467e-01       3.319e-07         -0.1257
Strip 6
  48       2.325e-01      -2.933e-01       6.956e-09         -0.0077
  49       2.025e-01      -2.933e-01       1.310e-08         -0.0127
  50       1.725e-01      -2.933e-01       9.197e-08         -0.0176
  51       1.425e-01      -2.933e-01       1.051e-06         -0.0227
  52       1.125e-01      -2.933e-01       3.147e-06         -0.0294
  53       8.250e-02      -2.933e-01       3.276e-06         -0.0403
  54       5.250e-02      -2.933e-01       6.615e-07         -0.0591
  55       2.250e-02      -2.933e-01       3.319e-07         -0.1290
Strip 7
  56       2.325e-01      -2.400e-01       6.956e-09         -0.0080
  57       2.025e-01      -2.400e-01       1.310e-08         -0.0131
  58       1.725e-01      -2.400e-01       9.197e-08         -0.0181
  59       1.425e-01      -2.400e-01       1.051e-06         -0.0234
  60       1.125e-01      -2.400e-01       3.147e-06         -0.0303
  61       8.250e-02      -2.400e-01       3.276e-06         -0.0414
  62       5.250e-02      -2.400e-01       6.615e-07         -0.0604
  63       2.250e-02      -2.400e-01       3.319e-07         -0.1315
Strip 8
  64       2.325e-01      -1.867e-01       6.956e-09         -0.0082
  65       2.025e-01      -1.867e-01       1.310e-08         -0.0134
  66       1.725e-01      -1.867e-01       9.197e-08         -0.0185
  67       1.425e-01      -1.867e-01       1.051e-06         -0.0239
  68       1.125e-01      -1.867e-01       3.147e-06         -0.0309
  69       8.250e-02      -1.867e-01       3.276e-06         -0.0421
  70       5.250e-02      -1.867e-01       6.615e-07         -0.0614
  71       2.250e-02      -1.867e-01       3.319e-07         -0.1333
Strip 9
  72       2.325e-01      -1.333e-01       6.956e-09         -0.0084
  73       2.025e-01      -1.333e-01       1.310e-08         -0.0137
  74       1.725e-01      -1.333e-01       9.197e-08         -0.0188
  75       1.425e-01      -1.333e-01       1.051e-06         -0.0243
  76       1.125e-01      -1.333e-01       3.147e-06         -0.0313
  77       8.250e-02      -1.333e-01       3.276e-06         -0.0426
  78       5.250e-02      -1.333e-01       6.615e-07         -0.0621
  79       2.250e-02      -1.333e-01       3.319e-07         -0.1346
Strip 10
  80       2.325e-01      -8.000e-02       6.956e-09         -0.0084
  81       2.025e-01      -8.000e-02       1.310e-08         -0.0138
  82       1.725e-01      -8.000e-02       9.197e-08         -0.0190
  83       1.425e-01      -8.000e-02       1.051e-06         -0.0245
  84       1.125e-01      -8.000e-02       3.147e-06         -0.0316
  85       8.250e-02      -8.000e-02       3.276e-06         -0.0429
  86       5.250e-02      -8.000e-02       6.615e-07         -0.0625
  87       2.250e-02      -8.000e-02       3.319e-07         -0.1354
Strip 11
  88       2.325e-01      -2.667e-02       6.956e-09         -0.0085
  89       2.025e-01      -2.667e-02       1.310e-08         -0.0139
  90       1.725e-01      -2.667e-02       9.197e-08         -0.0191
  91       1.425e-01      -2.667e-02       1.051e-06         -0.0246
  92       1.125e-01      -2.667e-02       3.147e-06         -0.0317
  93       8.250e-02      -2.667e-02       3.276e-06         -0.0431
  94       5.250e-02      -2.667e-02       6.615e-07         -0.0627
  95       2.250e-02      -2.667e-02       3.319e-07         -0.1358
Strip 12
  96       2.325e-01       2.667e-02       6.956e-09         -0.0085
  97       2.025e-01       2.667e-02       1.310e-08         -0.0139
  98       1.725e-01       2.667e-02       9.197e-08         -0.0191
  99       1.425e-01       2.667e-02       1.051e-06         -0.0246
 100       1.125e-01       2.667e-02       3.147e-06         -0.0317
 101       8.250e-02       2.667e-02       3.276e-06         -0.0431
 102       5.250e-02       2.667e-02       6.615e-07         -0.0627
 103       2.250e-02       2.667e-02       3.319e-07         -0.1358
Strip 13
 104       2.325e-01       8.000e-02       6.956e-09         -0.0084
 105       2.025e-01       8.000e-02       1.310e-08         -0.0138
 106       1.725e-01       8.000e-02       9.197e-08         -0.0190
 107       1.425e-01       8.000e-02       1.051e-06         -0.0245
 108       1.125e-01       8.000e-02       3.147e-06         -0.0316
 109       8.250e-02       8.000e-02       3.276e-06         -0.0429
 110       5.250e-02       8.000e-02       6.615e-07         -0.0625
 111       2.250e-02       8.000e-02       3.319e-07         -0.1354
Strip 14
 112       2.325e-01       1.333e-01       6.956e-09         -0.0084
 113       2.025e-01       1.333e-01       1.310e-08         -0.0137
 114       1.725e-01       1.333e-01       9.197e-08         -0.0188
 115       1.425e-01       1.333e-01       1.051e-06         -0.0243
 116       1.125e-01       1.333e-01       3.147e-06         -0.0313
 117       8.250e-02       1.333e-01       3.276e-06         -0.0426
 118       5.250e-02       1.333e-01       6.615e-07         -0.0621
 119       2.250e-02       1.333e-01       3.319e-07         -0.1346
Strip 15
 120       2.325e-01       1.867e-01       6.956e-09         -0.0082
 121       2.025e-01       1.867e-01       1.310e-08         -0.0134
 122       1.725e-01       1.867e-01       9.197e-08         -0.0185
 123       1.425e-01       1.867e-01       1.051e-06         -0.0239
 124       1.125e-01       1.867e-01       3.147e-06         -0.0309
 125       8.250e-02       1.867e-01       3.276e-06         -0.0421
 126       5.250e-02       1.867e-01       6.615e-07         -0.0614
 127       2.250e-02       1.867e-01       3.319e-07         -0.1333
Strip 16
 128       2.325e-01       2.400e-01       6.956e-09         -0.0080
 129       2.025e-01       2.400e-01       1.310e-08         -0.0131
 130       1.725e-01       2.400e-01       9.197e-08         -0.0181
 131       1.425e-01       2.400e-01       1.051e-06         -0.0234
 132       1.125e-01       2.400e-01       3.147e-06         -0.0303
 133       8.250e-02       2.400e-01       3.276e-06         -0.0414
 134       5.250e-02       2.400e-01       6.615e-07         -0.0604
 135       2.250e-02       2.400e-01       3.319e-07         -0.1315
Strip 17
 136       2.325e-01       2.933e-01       6.956e-09         -0.0077
 137       2.025e-01       2.933e-01       1.310e-08         -0.0127
 138       1.725e-01       2.933e-01       9.197e-08         -0.0176
 139       1.425e-01       2.933e-01       1.051e-06         -0.0227
 140       1.125e-01       2.933e-01       3.147e-06         -0.0294
 141       8.250e-02       2.933e-01       3.276e-06         -0.0403
 142       5.250e-02       2.933e-01       6.615e-07         -0.0591
 143       2.250e-02       2.933e-01       3.319e-07         -0.1290
Strip 18
 144       2.325e-01       3.467e-01       6.956e-09         -0.0074
 145       2.025e-01       3.467e-01       1.310e-08         -0.0121
 146       1.725e-01       3.467e-01       9.197e-08         -0.0168
 147       1.425e-01       3.467e-01       1.051e-06         -0.0218
 148       1.125e-01       3.467e-01       3.147e-06         -0.0283
 149       8.250e-02       3.467e-01       3.276e-06         -0.0390
 150       5.250e-02       3.467e-01       6.615e-07         -0.0573
 151       2.250e-02       3.467e-01       3.319e-07         -0.1257
Strip 19
 152       2.325e-01       4.000e-01       6.956e-09         -0.0069
 153       2.025e-01       4.000e-01       1.310e-08         -0.0113
 154       1.725e-01       4.000e-01       9.197e-08         -0.0158
 155       1.425e-01       4.000e-01       1.051e-06         -0.0205
 156       1.125e-01       4.000e-01       3.147e-06         -0.0268
 157       8.250e-02       4.000e-01       3.276e-06         -0.0371
 158       5.250e-02       4.000e-01       6.615e-07         -0.0550
 159       2.250e-02       4.000e-01       3.319e-07         -0.1213
Strip 20
 160       2.325e-01       4.533e-01       6.956e-09         -0.0062
 161       2.025e-01       4.533e-01       1.310e-08         -0.0103
 162       1.725e-01       4.533e-01       9.197e-08         -0.0144
 163       1.425e-01       4.533e-01       1.051e-06         -0.0187
 164       1.125e-01       4.533e-01       3.147e-06         -0.0247
 165       8.250e-02       4.533e-01       3.276e-06         -0.0346
 166       5.250e-02       4.533e-01       6.615e-07         -0.0517
 167       2.250e-02       4.533e-01       3.319e-07         -0.1154
Strip 21
 168       2.325e-01       5.067e-01       6.956e-09         -0.0054
 169       2.025e-01       5.067e-01       1.310e-08         -0.0089
 170       1.725e-01       5.067e-01       9.197e-08         -0.0125
 171       1.425e-01       5.067e-01       1.051e-06         -0.0163
 172       1.125e-01       5.067e-01       3.147e-06         -0.0217
 173       8.250e-02       5.067e-01       3.276e-06         -0.0310
 174       5.250e-02       5.067e-01       6.615e-07         -0.0471
 175       2.250e-02       5.067e-01       3.319e-07         -0.1072
Strip 22
 176       2.325e-01       5.600e-01       6.956e-09         -0.0043
 177       2.025e-01       5.600e-01       1.310e-08         -0.0070
 178       1.725e-01       5.600e-01       9.197e-08         -0.0099
 179       1.425e-01       5.600e-01       1.051e-06         -0.0130
 180       1.125e-01       5.600e-01       3.147e-06         -0.0174
 181       8.250e-02       5.600e-01       3.276e-06         -0.0255
 182       5.250e-02       5.600e-01       6.615e-07         -0.0400
 183       2.250e-02       5.600e-01       3.319e-07         -0.0949
Strip 23
 184       2.325e-01       6.133e-01       6.956e-09         -0.0028
 185       2.025e-01       6.133e-01       1.310e-08         -0.0045
 186       1.725e-01       6.133e-01       9.197e-08         -0.0063
 187       1.425e-01       6.133e-01       1.051e-06         -0.0082
 188       1.125e-01       6.133e-01       3.147e-06         -0.0110
 189       8.250e-02       6.133e-01       3.276e-06         -0.0167
 190       5.250e-02       6.133e-01       6.615e-07         -0.0276
 191       2.250e-02       6.133e-01       3.319e-07         -0.0731
Strip 24
 192       0.000e+00       0.000e+00       0.000e+00          0.0007
 193       0.000e+00       0.000e+00       0.000e+00          0.0044
 194       0.000e+00       0.000e+00       0.000e+00          0.0076
 195       0.000e+00       0.000e+00       0.000e+00         -0.0096
 196       0.000e+00       0.000e+00       0.000e+00         -0.0243
 197       0.000e+00       0.000e+00       0.000e+00          0.0102
 198       0.000e+00       0.000e+00       0.000e+00          0.0019
 199       0.000e+00       0.000e+00       0.000e+00          0.0042










