XFLR5 v6.02 Beta

NAC642A015 Wing
T1-54.4 m/s-VLM1-x0.000mm
QInf  =   54.400000 m/s
Alpha =    8.500000
Beta  =    0.000°
Phi   =    0.000°
Ctrl  =   18.000
CL    =    0.608129
Cy    =    0.000000
Cd    =    0.031976     ICd   =    0.021683     PCd   =    0.010293
Cl   = 6.48712e-18
Cm   =   -0.144614
ICn   =   -0.000000     PCn   =   -0.000000 
XCP   =    0.057706     YCP   =    0.000000 
XNP   =    0.000000
Bend. =   44.198077

NAC642A015 Wing
  y-span        Chord      Ai         Cl        PCd          ICd        CmGeom      CmAirf      XTrtop    XTrBot      XCP       BM
   -0.6133     0.2400    -6.173    0.313227    0.006577    0.017217   -0.063623    0.015097     0.5673    0.7272    0.2021    0.0000
   -0.5600     0.2400    -5.581    0.442678    0.006861    0.021948   -0.096970    0.014106     0.5035    0.7615    0.2183    0.3896
   -0.5067     0.2400    -5.070    0.522699    0.008129    0.023498   -0.119384    0.011592     0.3172    0.7886    0.2279    1.3290
   -0.4533     0.2400    -4.640    0.577613    0.009934    0.023730   -0.135249    0.009321     0.1257    0.8134    0.2339    2.9167
   -0.4000     0.2400    -4.288    0.617165    0.010640    0.023398   -0.146777    0.007549     0.0794    0.8312    0.2378    5.2200
   -0.3467     0.2400    -4.003    0.646400    0.011060    0.022856   -0.155291    0.006223     0.0601    0.8456    0.2404    8.2871
   -0.2933     0.2400    -3.776    0.668263    0.011342    0.022274   -0.161629    0.005248     0.0508    0.8573    0.2421   12.1537
   -0.2400     0.2400    -3.600    0.684591    0.011556    0.021738   -0.166336    0.004538     0.0446    0.8667    0.2434   16.8462
   -0.1867     0.2400    -3.466    0.696576    0.011721    0.021288   -0.169773    0.004031     0.0416    0.8748    0.2442   22.3845
   -0.1333     0.2400    -3.370    0.704999    0.011837    0.020942   -0.172178    0.003683     0.0394    0.8805    0.2448   28.7831
   -0.0800     0.2400    -3.308    0.710364    0.011911    0.020709   -0.173705    0.003466     0.0381    0.8842    0.2451   36.0521
   -0.0267     0.2400    -3.278    0.712976    0.011947    0.020592   -0.174447    0.003361     0.0374    0.8859    0.2453   44.1981
    0.0267     0.2400    -3.278    0.712976    0.011947    0.020592   -0.174447    0.003361     0.0374    0.8859    0.2453   44.1981
    0.0800     0.2400    -3.308    0.710364    0.011911    0.020709   -0.173705    0.003466     0.0381    0.8842    0.2451   36.0521
    0.1333     0.2400    -3.370    0.704999    0.011837    0.020942   -0.172178    0.003683     0.0394    0.8805    0.2448   28.7831
    0.1867     0.2400    -3.466    0.696576    0.011721    0.021288   -0.169773    0.004031     0.0416    0.8748    0.2442   22.3845
    0.2400     0.2400    -3.600    0.684591    0.011556    0.021738   -0.166336    0.004538     0.0446    0.8667    0.2434   16.8462
    0.2933     0.2400    -3.776    0.668263    0.011342    0.022274   -0.161629    0.005248     0.0508    0.8573    0.2421   12.1537
    0.3467     0.2400    -4.003    0.646400    0.011060    0.022856   -0.155291    0.006223     0.0601    0.8456    0.2404    8.2871
    0.4000     0.2400    -4.288    0.617165    0.010640    0.023398   -0.146777    0.007549     0.0794    0.8312    0.2378    5.2200
    0.4533     0.2400    -4.640    0.577613    0.009934    0.023730   -0.135249    0.009321     0.1257    0.8134    0.2339    2.9167
    0.5067     0.2400    -5.070    0.522699    0.008129    0.023498   -0.119384    0.011592     0.3172    0.7886    0.2279    1.3290
    0.5600     0.2400    -5.581    0.442678    0.006861    0.021948   -0.096970    0.014106     0.5035    0.7615    0.2183    0.3896
    0.6133     0.2400    -6.173    0.313227    0.006577    0.017217   -0.063623    0.015097     0.5673    0.7272    0.2021    0.0000


Wing Cp Coefficients
 Panel     CtrlPt.x        CtrlPt.y        CtrlPt.z             Cp
NAC642A015 WingCp Coefficients
Strip 1
   8       2.325e-01      -5.600e-01       6.956e-09          0.0710
   9       2.025e-01      -5.600e-01       1.310e-08          0.1165
  10       1.725e-01      -5.600e-01       9.197e-08          0.1634
  11       1.425e-01      -5.600e-01       1.051e-06          0.2210
  12       1.125e-01      -5.600e-01       3.147e-06          0.3003
  13       8.250e-02      -5.600e-01       3.276e-06          0.4247
  14       5.250e-02      -5.600e-01       6.615e-07          0.6701
  15       2.250e-02      -5.600e-01       3.319e-07          1.5874
Strip 2
  16       2.325e-01      -5.067e-01       6.956e-09          0.0896
  17       2.025e-01      -5.067e-01       1.310e-08          0.1476
  18       1.725e-01      -5.067e-01       9.197e-08          0.2066
  19       1.425e-01      -5.067e-01       1.051e-06          0.2775
  20       1.125e-01      -5.067e-01       3.147e-06          0.3723
  21       8.250e-02      -5.067e-01       3.276e-06          0.5158
  22       5.250e-02      -5.067e-01       6.615e-07          0.7883
  23       2.250e-02      -5.067e-01       3.319e-07          1.7935
Strip 3
  24       2.325e-01      -4.533e-01       6.956e-09          0.1040
  25       2.025e-01      -4.533e-01       1.310e-08          0.1709
  26       1.725e-01      -4.533e-01       9.197e-08          0.2383
  27       1.425e-01      -4.533e-01       1.051e-06          0.3177
  28       1.125e-01      -4.533e-01       3.147e-06          0.4219
  29       8.250e-02      -4.533e-01       3.276e-06          0.5764
  30       5.250e-02      -4.533e-01       6.615e-07          0.8657
  31       2.250e-02      -4.533e-01       3.319e-07          1.9315
Strip 4
  32       2.325e-01      -4.000e-01       6.956e-09          0.1149
  33       2.025e-01      -4.000e-01       1.310e-08          0.1883
  34       1.725e-01      -4.000e-01       9.197e-08          0.2616
  35       1.425e-01      -4.000e-01       1.051e-06          0.3469
  36       1.125e-01      -4.000e-01       3.147e-06          0.4572
  37       8.250e-02      -4.000e-01       3.276e-06          0.6190
  38       5.250e-02      -4.000e-01       6.615e-07          0.9201
  39       2.250e-02      -4.000e-01       3.319e-07          2.0305
Strip 5
  40       2.325e-01      -3.467e-01       6.956e-09          0.1231
  41       2.025e-01      -3.467e-01       1.310e-08          0.2014
  42       1.725e-01      -3.467e-01       9.197e-08          0.2789
  43       1.425e-01      -3.467e-01       1.051e-06          0.3682
  44       1.125e-01      -3.467e-01       3.147e-06          0.4829
  45       8.250e-02      -3.467e-01       3.276e-06          0.6500
  46       5.250e-02      -3.467e-01       6.615e-07          0.9599
  47       2.250e-02      -3.467e-01       3.319e-07          2.1040
Strip 6
  48       2.325e-01      -2.933e-01       6.956e-09          0.1293
  49       2.025e-01      -2.933e-01       1.310e-08          0.2112
  50       1.725e-01      -2.933e-01       9.197e-08          0.2918
  51       1.425e-01      -2.933e-01       1.051e-06          0.3841
  52       1.125e-01      -2.933e-01       3.147e-06          0.5019
  53       8.250e-02      -2.933e-01       3.276e-06          0.6729
  54       5.250e-02      -2.933e-01       6.615e-07          0.9895
  55       2.250e-02      -2.933e-01       3.319e-07          2.1593
Strip 7
  56       2.325e-01      -2.400e-01       6.956e-09          0.1340
  57       2.025e-01      -2.400e-01       1.310e-08          0.2185
  58       1.725e-01      -2.400e-01       9.197e-08          0.3013
  59       1.425e-01      -2.400e-01       1.051e-06          0.3958
  60       1.125e-01      -2.400e-01       3.147e-06          0.5159
  61       8.250e-02      -2.400e-01       3.276e-06          0.6899
  62       5.250e-02      -2.400e-01       6.615e-07          1.0116
  63       2.250e-02      -2.400e-01       3.319e-07          2.2008
Strip 8
  64       2.325e-01      -1.867e-01       6.956e-09          0.1374
  65       2.025e-01      -1.867e-01       1.310e-08          0.2239
  66       1.725e-01      -1.867e-01       9.197e-08          0.3083
  67       1.425e-01      -1.867e-01       1.051e-06          0.4044
  68       1.125e-01      -1.867e-01       3.147e-06          0.5262
  69       8.250e-02      -1.867e-01       3.276e-06          0.7024
  70       5.250e-02      -1.867e-01       6.615e-07          1.0278
  71       2.250e-02      -1.867e-01       3.319e-07          2.2315
Strip 9
  72       2.325e-01      -1.333e-01       6.956e-09          0.1398
  73       2.025e-01      -1.333e-01       1.310e-08          0.2276
  74       1.725e-01      -1.333e-01       9.197e-08          0.3132
  75       1.425e-01      -1.333e-01       1.051e-06          0.4103
  76       1.125e-01      -1.333e-01       3.147e-06          0.5333
  77       8.250e-02      -1.333e-01       3.276e-06          0.7111
  78       5.250e-02      -1.333e-01       6.615e-07          1.0391
  79       2.250e-02      -1.333e-01       3.319e-07          2.2532
Strip 10
  80       2.325e-01      -8.000e-02       6.956e-09          0.1413
  81       2.025e-01      -8.000e-02       1.310e-08          0.2300
  82       1.725e-01      -8.000e-02       9.197e-08          0.3163
  83       1.425e-01      -8.000e-02       1.051e-06          0.4141
  84       1.125e-01      -8.000e-02       3.147e-06          0.5379
  85       8.250e-02      -8.000e-02       3.276e-06          0.7166
  86       5.250e-02      -8.000e-02       6.615e-07          1.0464
  87       2.250e-02      -8.000e-02       3.319e-07          2.2670
Strip 11
  88       2.325e-01      -2.667e-02       6.956e-09          0.1420
  89       2.025e-01      -2.667e-02       1.310e-08          0.2311
  90       1.725e-01      -2.667e-02       9.197e-08          0.3178
  91       1.425e-01      -2.667e-02       1.051e-06          0.4160
  92       1.125e-01      -2.667e-02       3.147e-06          0.5401
  93       8.250e-02      -2.667e-02       3.276e-06          0.7193
  94       5.250e-02      -2.667e-02       6.615e-07          1.0499
  95       2.250e-02      -2.667e-02       3.319e-07          2.2738
Strip 12
  96       2.325e-01       2.667e-02       6.956e-09          0.1420
  97       2.025e-01       2.667e-02       1.310e-08          0.2311
  98       1.725e-01       2.667e-02       9.197e-08          0.3178
  99       1.425e-01       2.667e-02       1.051e-06          0.4160
 100       1.125e-01       2.667e-02       3.147e-06          0.5401
 101       8.250e-02       2.667e-02       3.276e-06          0.7193
 102       5.250e-02       2.667e-02       6.615e-07          1.0499
 103       2.250e-02       2.667e-02       3.319e-07          2.2738
Strip 13
 104       2.325e-01       8.000e-02       6.956e-09          0.1413
 105       2.025e-01       8.000e-02       1.310e-08          0.2300
 106       1.725e-01       8.000e-02       9.197e-08          0.3163
 107       1.425e-01       8.000e-02       1.051e-06          0.4141
 108       1.125e-01       8.000e-02       3.147e-06          0.5379
 109       8.250e-02       8.000e-02       3.276e-06          0.7166
 110       5.250e-02       8.000e-02       6.615e-07          1.0464
 111       2.250e-02       8.000e-02       3.319e-07          2.2670
Strip 14
 112       2.325e-01       1.333e-01       6.956e-09          0.1398
 113       2.025e-01       1.333e-01       1.310e-08          0.2276
 114       1.725e-01       1.333e-01       9.197e-08          0.3132
 115       1.425e-01       1.333e-01       1.051e-06          0.4103
 116       1.125e-01       1.333e-01       3.147e-06          0.5333
 117       8.250e-02       1.333e-01       3.276e-06          0.7111
 118       5.250e-02       1.333e-01       6.615e-07          1.0391
 119       2.250e-02       1.333e-01       3.319e-07          2.2532
Strip 15
 120       2.325e-01       1.867e-01       6.956e-09          0.1374
 121       2.025e-01       1.867e-01       1.310e-08          0.2239
 122       1.725e-01       1.867e-01       9.197e-08          0.3083
 123       1.425e-01       1.867e-01       1.051e-06          0.4044
 124       1.125e-01       1.867e-01       3.147e-06          0.5262
 125       8.250e-02       1.867e-01       3.276e-06          0.7024
 126       5.250e-02       1.867e-01       6.615e-07          1.0278
 127       2.250e-02       1.867e-01       3.319e-07          2.2315
Strip 16
 128       2.325e-01       2.400e-01       6.956e-09          0.1340
 129       2.025e-01       2.400e-01       1.310e-08          0.2185
 130       1.725e-01       2.400e-01       9.197e-08          0.3013
 131       1.425e-01       2.400e-01       1.051e-06          0.3958
 132       1.125e-01       2.400e-01       3.147e-06          0.5159
 133       8.250e-02       2.400e-01       3.276e-06          0.6899
 134       5.250e-02       2.400e-01       6.615e-07          1.0116
 135       2.250e-02       2.400e-01       3.319e-07          2.2008
Strip 17
 136       2.325e-01       2.933e-01       6.956e-09          0.1293
 137       2.025e-01       2.933e-01       1.310e-08          0.2112
 138       1.725e-01       2.933e-01       9.197e-08          0.2918
 139       1.425e-01       2.933e-01       1.051e-06          0.3841
 140       1.125e-01       2.933e-01       3.147e-06          0.5019
 141       8.250e-02       2.933e-01       3.276e-06          0.6729
 142       5.250e-02       2.933e-01       6.615e-07          0.9895
 143       2.250e-02       2.933e-01       3.319e-07          2.1593
Strip 18
 144       2.325e-01       3.467e-01       6.956e-09          0.1231
 145       2.025e-01       3.467e-01       1.310e-08          0.2014
 146       1.725e-01       3.467e-01       9.197e-08          0.2789
 147       1.425e-01       3.467e-01       1.051e-06          0.3682
 148       1.125e-01       3.467e-01       3.147e-06          0.4829
 149       8.250e-02       3.467e-01       3.276e-06          0.6500
 150       5.250e-02       3.467e-01       6.615e-07          0.9599
 151       2.250e-02       3.467e-01       3.319e-07          2.1040
Strip 19
 152       2.325e-01       4.000e-01       6.956e-09          0.1149
 153       2.025e-01       4.000e-01       1.310e-08          0.1883
 154       1.725e-01       4.000e-01       9.197e-08          0.2616
 155       1.425e-01       4.000e-01       1.051e-06          0.3469
 156       1.125e-01       4.000e-01       3.147e-06          0.4572
 157       8.250e-02       4.000e-01       3.276e-06          0.6190
 158       5.250e-02       4.000e-01       6.615e-07          0.9201
 159       2.250e-02       4.000e-01       3.319e-07          2.0305
Strip 20
 160       2.325e-01       4.533e-01       6.956e-09          0.1040
 161       2.025e-01       4.533e-01       1.310e-08          0.1709
 162       1.725e-01       4.533e-01       9.197e-08          0.2383
 163       1.425e-01       4.533e-01       1.051e-06          0.3177
 164       1.125e-01       4.533e-01       3.147e-06          0.4219
 165       8.250e-02       4.533e-01       3.276e-06          0.5764
 166       5.250e-02       4.533e-01       6.615e-07          0.8657
 167       2.250e-02       4.533e-01       3.319e-07          1.9315
Strip 21
 168       2.325e-01       5.067e-01       6.956e-09          0.0896
 169       2.025e-01       5.067e-01       1.310e-08          0.1476
 170       1.725e-01       5.067e-01       9.197e-08          0.2066
 171       1.425e-01       5.067e-01       1.051e-06          0.2775
 172       1.125e-01       5.067e-01       3.147e-06          0.3723
 173       8.250e-02       5.067e-01       3.276e-06          0.5158
 174       5.250e-02       5.067e-01       6.615e-07          0.7883
 175       2.250e-02       5.067e-01       3.319e-07          1.7935
Strip 22
 176       2.325e-01       5.600e-01       6.956e-09          0.0710
 177       2.025e-01       5.600e-01       1.310e-08          0.1165
 178       1.725e-01       5.600e-01       9.197e-08          0.1634
 179       1.425e-01       5.600e-01       1.051e-06          0.2210
 180       1.125e-01       5.600e-01       3.147e-06          0.3003
 181       8.250e-02       5.600e-01       3.276e-06          0.4247
 182       5.250e-02       5.600e-01       6.615e-07          0.6701
 183       2.250e-02       5.600e-01       3.319e-07          1.5874
Strip 23
 184       2.325e-01       6.133e-01       6.956e-09          0.0463
 185       2.025e-01       6.133e-01       1.310e-08          0.0747
 186       1.725e-01       6.133e-01       9.197e-08          0.1038
 187       1.425e-01       6.133e-01       1.051e-06          0.1402
 188       1.125e-01       6.133e-01       3.147e-06          0.1917
 189       8.250e-02       6.133e-01       3.276e-06          0.2769
 190       5.250e-02       6.133e-01       6.615e-07          0.4618
 191       2.250e-02       6.133e-01       3.319e-07          1.2238
Strip 24
 192       0.000e+00       0.000e+00       0.000e+00         -2.6598
 193       0.000e+00       0.000e+00       0.000e+00         -4.2942
 194       0.000e+00       0.000e+00       0.000e+00         -5.9686
 195       0.000e+00       0.000e+00       0.000e+00         -8.0578
 196       0.000e+00       0.000e+00       0.000e+00        -11.0201
 197       0.000e+00       0.000e+00       0.000e+00        -15.9187
 198       0.000e+00       0.000e+00       0.000e+00        -26.5524
 199       0.000e+00       0.000e+00       0.000e+00        -70.3642










