XFLR5 v6.02 Beta

NAC642A015 Wing
T1-54.4 m/s-VLM1-x0.000mm
QInf  =   54.400000 m/s
Alpha =   14.000000
Beta  =    0.000°
Phi   =    0.000°
Ctrl  =   18.000
CL    =    0.977512
Cy    =    0.000000
Cd    =    0.078878     ICd   =    0.056983     PCd   =    0.021895
Cl   = 7.84098e-19
Cm   =   -0.232204
ICn   =   -0.000000     PCn   =   -0.000000 
XCP   =    0.058756     YCP   =    0.000000 
XNP   =    0.000000
Bend. =   70.969346

NAC642A015 Wing
  y-span        Chord      Ai         Cl        PCd          ICd        CmGeom      CmAirf      XTrtop    XTrBot      XCP       BM
   -0.6133     0.2400    -9.852    0.498517    0.007247    0.045247   -0.102157    0.024243     0.4289    0.7780    0.2021    0.0000
   -0.5600     0.2400    -8.917    0.706502    0.011858    0.057681   -0.155703    0.022653     0.0391    0.8815    0.2182    0.6256
   -0.5067     0.2400    -8.108    0.836198    0.013907    0.061755   -0.191693    0.018616     0.0234    0.9651    0.2279    2.1341
   -0.4533     0.2400    -7.426    0.925884    0.015578    0.062364   -0.217168    0.014971     0.0191    0.9963    0.2339    4.6835
   -0.4000     0.2400    -6.865    0.990891    0.017682    0.061491   -0.235678    0.012125     0.0171    1.0000    0.2378    8.3818
   -0.3467     0.2400    -6.411    1.039185    0.020228    0.060066   -0.249348    0.009996     0.0160    1.0000    0.2404   13.3068
   -0.2933     0.2400    -6.050    1.075445    0.024003    0.058538   -0.259526    0.008430     0.0153    1.0000    0.2421   19.5153
   -0.2400     0.2400    -5.768    1.102610    0.026458    0.057130   -0.267085    0.007290     0.0150    1.0000    0.2434   27.0502
   -0.1867     0.2400    -5.555    1.122596    0.028801    0.055946   -0.272603    0.006476     0.0147    1.0000    0.2442   35.9431
   -0.1333     0.2400    -5.402    1.136665    0.030937    0.055037   -0.276465    0.005918     0.0145    1.0000    0.2448   46.2174
   -0.0800     0.2400    -5.303    1.145639    0.032582    0.054424   -0.278917    0.005568     0.0143    1.0000    0.2451   57.8893
   -0.0267     0.2400    -5.254    1.150009    0.033462    0.054116   -0.280108    0.005400     0.0142    1.0000    0.2453   70.9693
    0.0267     0.2400    -5.254    1.150009    0.033462    0.054116   -0.280108    0.005400     0.0142    1.0000    0.2453   70.9693
    0.0800     0.2400    -5.303    1.145639    0.032582    0.054424   -0.278917    0.005568     0.0143    1.0000    0.2451   57.8893
    0.1333     0.2400    -5.402    1.136665    0.030937    0.055037   -0.276465    0.005918     0.0145    1.0000    0.2448   46.2174
    0.1867     0.2400    -5.555    1.122596    0.028801    0.055946   -0.272603    0.006476     0.0147    1.0000    0.2442   35.9431
    0.2400     0.2400    -5.768    1.102610    0.026458    0.057130   -0.267085    0.007290     0.0150    1.0000    0.2434   27.0502
    0.2933     0.2400    -6.050    1.075445    0.024003    0.058538   -0.259526    0.008430     0.0153    1.0000    0.2421   19.5153
    0.3467     0.2400    -6.411    1.039185    0.020228    0.060066   -0.249348    0.009996     0.0160    1.0000    0.2404   13.3068
    0.4000     0.2400    -6.865    0.990891    0.017682    0.061491   -0.235678    0.012125     0.0171    1.0000    0.2378    8.3818
    0.4533     0.2400    -7.426    0.925884    0.015578    0.062364   -0.217168    0.014971     0.0191    0.9963    0.2339    4.6835
    0.5067     0.2400    -8.108    0.836198    0.013907    0.061755   -0.191693    0.018616     0.0234    0.9651    0.2279    2.1341
    0.5600     0.2400    -8.917    0.706502    0.011858    0.057681   -0.155703    0.022653     0.0391    0.8815    0.2182    0.6256
    0.6133     0.2400    -9.852    0.498517    0.007247    0.045247   -0.102157    0.024243     0.4289    0.7780    0.2021    0.0000


Wing Cp Coefficients
 Panel     CtrlPt.x        CtrlPt.y        CtrlPt.z             Cp
NAC642A015 WingCp Coefficients
Strip 1
   8       2.325e-01      -5.600e-01       6.956e-09          0.1139
   9       2.025e-01      -5.600e-01       1.310e-08          0.1872
  10       1.725e-01      -5.600e-01       9.197e-08          0.2625
  11       1.425e-01      -5.600e-01       1.051e-06          0.3547
  12       1.125e-01      -5.600e-01       3.147e-06          0.4819
  13       8.250e-02      -5.600e-01       3.276e-06          0.6821
  14       5.250e-02      -5.600e-01       6.615e-07          1.0760
  15       2.250e-02      -5.600e-01       3.319e-07          2.5491
Strip 2
  16       2.325e-01      -5.067e-01       6.956e-09          0.1439
  17       2.025e-01      -5.067e-01       1.310e-08          0.2370
  18       1.725e-01      -5.067e-01       9.197e-08          0.3318
  19       1.425e-01      -5.067e-01       1.051e-06          0.4455
  20       1.125e-01      -5.067e-01       3.147e-06          0.5976
  21       8.250e-02      -5.067e-01       3.276e-06          0.8283
  22       5.250e-02      -5.067e-01       6.615e-07          1.2658
  23       2.250e-02      -5.067e-01       3.319e-07          2.8800
Strip 3
  24       2.325e-01      -4.533e-01       6.956e-09          0.1669
  25       2.025e-01      -4.533e-01       1.310e-08          0.2744
  26       1.725e-01      -4.533e-01       9.197e-08          0.3827
  27       1.425e-01      -4.533e-01       1.051e-06          0.5101
  28       1.125e-01      -4.533e-01       3.147e-06          0.6771
  29       8.250e-02      -4.533e-01       3.276e-06          0.9256
  30       5.250e-02      -4.533e-01       6.615e-07          1.3900
  31       2.250e-02      -4.533e-01       3.319e-07          3.1016
Strip 4
  32       2.325e-01      -4.000e-01       6.956e-09          0.1845
  33       2.025e-01      -4.000e-01       1.310e-08          0.3025
  34       1.725e-01      -4.000e-01       9.197e-08          0.4201
  35       1.425e-01      -4.000e-01       1.051e-06          0.5568
  36       1.125e-01      -4.000e-01       3.147e-06          0.7338
  37       8.250e-02      -4.000e-01       3.276e-06          0.9940
  38       5.250e-02      -4.000e-01       6.615e-07          1.4775
  39       2.250e-02      -4.000e-01       3.319e-07          3.2605
Strip 5
  40       2.325e-01      -3.467e-01       6.956e-09          0.1977
  41       2.025e-01      -3.467e-01       1.310e-08          0.3235
  42       1.725e-01      -3.467e-01       9.197e-08          0.4479
  43       1.425e-01      -3.467e-01       1.051e-06          0.5912
  44       1.125e-01      -3.467e-01       3.147e-06          0.7751
  45       8.250e-02      -3.467e-01       3.276e-06          1.0438
  46       5.250e-02      -3.467e-01       6.615e-07          1.5414
  47       2.250e-02      -3.467e-01       3.319e-07          3.3785
Strip 6
  48       2.325e-01      -2.933e-01       6.956e-09          0.2077
  49       2.025e-01      -2.933e-01       1.310e-08          0.3393
  50       1.725e-01      -2.933e-01       9.197e-08          0.4686
  51       1.425e-01      -2.933e-01       1.051e-06          0.6166
  52       1.125e-01      -2.933e-01       3.147e-06          0.8056
  53       8.250e-02      -2.933e-01       3.276e-06          1.0807
  54       5.250e-02      -2.933e-01       6.615e-07          1.5889
  55       2.250e-02      -2.933e-01       3.319e-07          3.4672
Strip 7
  56       2.325e-01      -2.400e-01       6.956e-09          0.2152
  57       2.025e-01      -2.400e-01       1.310e-08          0.3510
  58       1.725e-01      -2.400e-01       9.197e-08          0.4840
  59       1.425e-01      -2.400e-01       1.051e-06          0.6355
  60       1.125e-01      -2.400e-01       3.147e-06          0.8282
  61       8.250e-02      -2.400e-01       3.276e-06          1.1080
  62       5.250e-02      -2.400e-01       6.615e-07          1.6244
  63       2.250e-02      -2.400e-01       3.319e-07          3.5340
Strip 8
  64       2.325e-01      -1.867e-01       6.956e-09          0.2206
  65       2.025e-01      -1.867e-01       1.310e-08          0.3595
  66       1.725e-01      -1.867e-01       9.197e-08          0.4951
  67       1.425e-01      -1.867e-01       1.051e-06          0.6492
  68       1.125e-01      -1.867e-01       3.147e-06          0.8446
  69       8.250e-02      -1.867e-01       3.276e-06          1.1279
  70       5.250e-02      -1.867e-01       6.615e-07          1.6504
  71       2.250e-02      -1.867e-01       3.319e-07          3.5832
Strip 9
  72       2.325e-01      -1.333e-01       6.956e-09          0.2244
  73       2.025e-01      -1.333e-01       1.310e-08          0.3655
  74       1.725e-01      -1.333e-01       9.197e-08          0.5029
  75       1.425e-01      -1.333e-01       1.051e-06          0.6587
  76       1.125e-01      -1.333e-01       3.147e-06          0.8561
  77       8.250e-02      -1.333e-01       3.276e-06          1.1419
  78       5.250e-02      -1.333e-01       6.615e-07          1.6686
  79       2.250e-02      -1.333e-01       3.319e-07          3.6180
Strip 10
  80       2.325e-01      -8.000e-02       6.956e-09          0.2269
  81       2.025e-01      -8.000e-02       1.310e-08          0.3693
  82       1.725e-01      -8.000e-02       9.197e-08          0.5079
  83       1.425e-01      -8.000e-02       1.051e-06          0.6648
  84       1.125e-01      -8.000e-02       3.147e-06          0.8634
  85       8.250e-02      -8.000e-02       3.276e-06          1.1508
  86       5.250e-02      -8.000e-02       6.615e-07          1.6802
  87       2.250e-02      -8.000e-02       3.319e-07          3.6403
Strip 11
  88       2.325e-01      -2.667e-02       6.956e-09          0.2281
  89       2.025e-01      -2.667e-02       1.310e-08          0.3712
  90       1.725e-01      -2.667e-02       9.197e-08          0.5103
  91       1.425e-01      -2.667e-02       1.051e-06          0.6678
  92       1.125e-01      -2.667e-02       3.147e-06          0.8669
  93       8.250e-02      -2.667e-02       3.276e-06          1.1551
  94       5.250e-02      -2.667e-02       6.615e-07          1.6859
  95       2.250e-02      -2.667e-02       3.319e-07          3.6511
Strip 12
  96       2.325e-01       2.667e-02       6.956e-09          0.2281
  97       2.025e-01       2.667e-02       1.310e-08          0.3712
  98       1.725e-01       2.667e-02       9.197e-08          0.5103
  99       1.425e-01       2.667e-02       1.051e-06          0.6678
 100       1.125e-01       2.667e-02       3.147e-06          0.8669
 101       8.250e-02       2.667e-02       3.276e-06          1.1551
 102       5.250e-02       2.667e-02       6.615e-07          1.6859
 103       2.250e-02       2.667e-02       3.319e-07          3.6511
Strip 13
 104       2.325e-01       8.000e-02       6.956e-09          0.2269
 105       2.025e-01       8.000e-02       1.310e-08          0.3693
 106       1.725e-01       8.000e-02       9.197e-08          0.5079
 107       1.425e-01       8.000e-02       1.051e-06          0.6648
 108       1.125e-01       8.000e-02       3.147e-06          0.8634
 109       8.250e-02       8.000e-02       3.276e-06          1.1508
 110       5.250e-02       8.000e-02       6.615e-07          1.6802
 111       2.250e-02       8.000e-02       3.319e-07          3.6403
Strip 14
 112       2.325e-01       1.333e-01       6.956e-09          0.2244
 113       2.025e-01       1.333e-01       1.310e-08          0.3655
 114       1.725e-01       1.333e-01       9.197e-08          0.5029
 115       1.425e-01       1.333e-01       1.051e-06          0.6587
 116       1.125e-01       1.333e-01       3.147e-06          0.8561
 117       8.250e-02       1.333e-01       3.276e-06          1.1419
 118       5.250e-02       1.333e-01       6.615e-07          1.6686
 119       2.250e-02       1.333e-01       3.319e-07          3.6180
Strip 15
 120       2.325e-01       1.867e-01       6.956e-09          0.2206
 121       2.025e-01       1.867e-01       1.310e-08          0.3595
 122       1.725e-01       1.867e-01       9.197e-08          0.4951
 123       1.425e-01       1.867e-01       1.051e-06          0.6492
 124       1.125e-01       1.867e-01       3.147e-06          0.8446
 125       8.250e-02       1.867e-01       3.276e-06          1.1279
 126       5.250e-02       1.867e-01       6.615e-07          1.6504
 127       2.250e-02       1.867e-01       3.319e-07          3.5832
Strip 16
 128       2.325e-01       2.400e-01       6.956e-09          0.2152
 129       2.025e-01       2.400e-01       1.310e-08          0.3510
 130       1.725e-01       2.400e-01       9.197e-08          0.4840
 131       1.425e-01       2.400e-01       1.051e-06          0.6355
 132       1.125e-01       2.400e-01       3.147e-06          0.8282
 133       8.250e-02       2.400e-01       3.276e-06          1.1080
 134       5.250e-02       2.400e-01       6.615e-07          1.6244
 135       2.250e-02       2.400e-01       3.319e-07          3.5340
Strip 17
 136       2.325e-01       2.933e-01       6.956e-09          0.2077
 137       2.025e-01       2.933e-01       1.310e-08          0.3393
 138       1.725e-01       2.933e-01       9.197e-08          0.4686
 139       1.425e-01       2.933e-01       1.051e-06          0.6166
 140       1.125e-01       2.933e-01       3.147e-06          0.8056
 141       8.250e-02       2.933e-01       3.276e-06          1.0807
 142       5.250e-02       2.933e-01       6.615e-07          1.5889
 143       2.250e-02       2.933e-01       3.319e-07          3.4672
Strip 18
 144       2.325e-01       3.467e-01       6.956e-09          0.1977
 145       2.025e-01       3.467e-01       1.310e-08          0.3235
 146       1.725e-01       3.467e-01       9.197e-08          0.4479
 147       1.425e-01       3.467e-01       1.051e-06          0.5912
 148       1.125e-01       3.467e-01       3.147e-06          0.7751
 149       8.250e-02       3.467e-01       3.276e-06          1.0438
 150       5.250e-02       3.467e-01       6.615e-07          1.5414
 151       2.250e-02       3.467e-01       3.319e-07          3.3785
Strip 19
 152       2.325e-01       4.000e-01       6.956e-09          0.1845
 153       2.025e-01       4.000e-01       1.310e-08          0.3025
 154       1.725e-01       4.000e-01       9.197e-08          0.4201
 155       1.425e-01       4.000e-01       1.051e-06          0.5568
 156       1.125e-01       4.000e-01       3.147e-06          0.7338
 157       8.250e-02       4.000e-01       3.276e-06          0.9940
 158       5.250e-02       4.000e-01       6.615e-07          1.4775
 159       2.250e-02       4.000e-01       3.319e-07          3.2605
Strip 20
 160       2.325e-01       4.533e-01       6.956e-09          0.1669
 161       2.025e-01       4.533e-01       1.310e-08          0.2744
 162       1.725e-01       4.533e-01       9.197e-08          0.3827
 163       1.425e-01       4.533e-01       1.051e-06          0.5101
 164       1.125e-01       4.533e-01       3.147e-06          0.6771
 165       8.250e-02       4.533e-01       3.276e-06          0.9256
 166       5.250e-02       4.533e-01       6.615e-07          1.3900
 167       2.250e-02       4.533e-01       3.319e-07          3.1016
Strip 21
 168       2.325e-01       5.067e-01       6.956e-09          0.1439
 169       2.025e-01       5.067e-01       1.310e-08          0.2370
 170       1.725e-01       5.067e-01       9.197e-08          0.3318
 171       1.425e-01       5.067e-01       1.051e-06          0.4455
 172       1.125e-01       5.067e-01       3.147e-06          0.5976
 173       8.250e-02       5.067e-01       3.276e-06          0.8283
 174       5.250e-02       5.067e-01       6.615e-07          1.2658
 175       2.250e-02       5.067e-01       3.319e-07          2.8800
Strip 22
 176       2.325e-01       5.600e-01       6.956e-09          0.1139
 177       2.025e-01       5.600e-01       1.310e-08          0.1872
 178       1.725e-01       5.600e-01       9.197e-08          0.2625
 179       1.425e-01       5.600e-01       1.051e-06          0.3547
 180       1.125e-01       5.600e-01       3.147e-06          0.4819
 181       8.250e-02       5.600e-01       3.276e-06          0.6821
 182       5.250e-02       5.600e-01       6.615e-07          1.0760
 183       2.250e-02       5.600e-01       3.319e-07          2.5491
Strip 23
 184       2.325e-01       6.133e-01       6.956e-09          0.0743
 185       2.025e-01       6.133e-01       1.310e-08          0.1200
 186       1.725e-01       6.133e-01       9.197e-08          0.1668
 187       1.425e-01       6.133e-01       1.051e-06          0.2249
 188       1.125e-01       6.133e-01       3.147e-06          0.3075
 189       8.250e-02       6.133e-01       3.276e-06          0.4447
 190       5.250e-02       6.133e-01       6.615e-07          0.7416
 191       2.250e-02       6.133e-01       3.319e-07          1.9651
Strip 24
 192       0.000e+00       0.000e+00       0.000e+00         -4.1734
 193       0.000e+00       0.000e+00       0.000e+00         -6.7396
 194       0.000e+00       0.000e+00       0.000e+00         -9.3685
 195       0.000e+00       0.000e+00       0.000e+00        -12.6359
 196       0.000e+00       0.000e+00       0.000e+00        -17.2747
 197       0.000e+00       0.000e+00       0.000e+00        -24.9808
 198       0.000e+00       0.000e+00       0.000e+00        -41.6586
 199       0.000e+00       0.000e+00       0.000e+00       -110.3954










