XFLR5 v6.02 Beta

NAC642A015 Wing
T1-54.4 m/s-VLM1-x0.000mm
QInf  =   54.400000 m/s
Alpha =    0.000000
Beta  =    0.000°
Phi   =    0.000°
Ctrl  =   18.000
CL    =    0.000023
Cy    =    0.000000
Cd    =    0.006448     ICd   =    0.000000     PCd   =    0.006448
Cl   = -2.01948e-22
Cm   = -1.14997e-05
ICn   =    0.000000     PCn   =   -0.000000 
XCP   =    0.117920     YCP   =    0.000000 
XNP   =    0.000000
Bend. =    0.001696

NAC642A015 Wing
  y-span        Chord      Ai         Cl        PCd          ICd        CmGeom      CmAirf      XTrtop    XTrBot      XCP       BM
   -0.6133     0.2400    -0.000    0.000011    0.006448    0.000000   -0.000006   -0.000003     0.6528    0.6536    0.5291    0.0000
   -0.5600     0.2400    -0.000    0.000017    0.006448    0.000000   -0.000009   -0.000005     0.6528    0.6536    0.5247    0.0000
   -0.5067     0.2400    -0.000    0.000020    0.006448    0.000000   -0.000010   -0.000005     0.6528    0.6536    0.5150    0.0000
   -0.4533     0.2400    -0.000    0.000022    0.006448    0.000000   -0.000011   -0.000006     0.6528    0.6536    0.5053    0.0001
   -0.4000     0.2400    -0.000    0.000024    0.006448    0.000000   -0.000012   -0.000006     0.6528    0.6536    0.4972    0.0002
   -0.3467     0.2400    -0.000    0.000025    0.006448    0.000000   -0.000012   -0.000006     0.6528    0.6536    0.4908    0.0003
   -0.2933     0.2400    -0.000    0.000026    0.006448    0.000000   -0.000013   -0.000006     0.6528    0.6536    0.4859    0.0005
   -0.2400     0.2400    -0.000    0.000026    0.006448    0.000000   -0.000013   -0.000006     0.6528    0.6536    0.4822    0.0006
   -0.1867     0.2400    -0.000    0.000027    0.006448    0.000000   -0.000013   -0.000006     0.6528    0.6536    0.4795    0.0009
   -0.1333     0.2400    -0.000    0.000027    0.006448    0.000000   -0.000013   -0.000006     0.6528    0.6536    0.4776    0.0011
   -0.0800     0.2400    -0.000    0.000027    0.006448    0.000000   -0.000013   -0.000006     0.6528    0.6536    0.4764    0.0014
   -0.0267     0.2400    -0.000    0.000027    0.006448    0.000000   -0.000013   -0.000006     0.6528    0.6536    0.4758    0.0017
    0.0267     0.2400    -0.000    0.000027    0.006448    0.000000   -0.000013   -0.000006     0.6528    0.6536    0.4758    0.0017
    0.0800     0.2400    -0.000    0.000027    0.006448    0.000000   -0.000013   -0.000006     0.6528    0.6536    0.4764    0.0014
    0.1333     0.2400    -0.000    0.000027    0.006448    0.000000   -0.000013   -0.000006     0.6528    0.6536    0.4776    0.0011
    0.1867     0.2400    -0.000    0.000027    0.006448    0.000000   -0.000013   -0.000006     0.6528    0.6536    0.4795    0.0009
    0.2400     0.2400    -0.000    0.000026    0.006448    0.000000   -0.000013   -0.000006     0.6528    0.6536    0.4822    0.0006
    0.2933     0.2400    -0.000    0.000026    0.006448    0.000000   -0.000013   -0.000006     0.6528    0.6536    0.4859    0.0005
    0.3467     0.2400    -0.000    0.000025    0.006448    0.000000   -0.000012   -0.000006     0.6528    0.6536    0.4908    0.0003
    0.4000     0.2400    -0.000    0.000024    0.006448    0.000000   -0.000012   -0.000006     0.6528    0.6536    0.4972    0.0002
    0.4533     0.2400    -0.000    0.000022    0.006448    0.000000   -0.000011   -0.000006     0.6528    0.6536    0.5053    0.0001
    0.5067     0.2400    -0.000    0.000020    0.006448    0.000000   -0.000010   -0.000005     0.6528    0.6536    0.5150    0.0000
    0.5600     0.2400    -0.000    0.000017    0.006448    0.000000   -0.000009   -0.000005     0.6528    0.6536    0.5247    0.0000
    0.6133     0.2400    -0.000    0.000011    0.006448    0.000000   -0.000006   -0.000003     0.6528    0.6536    0.5291    0.0000


Wing Cp Coefficients
 Panel     CtrlPt.x        CtrlPt.y        CtrlPt.z             Cp
NAC642A015 WingCp Coefficients
Strip 1
   8       2.325e-01      -5.600e-01       6.956e-09         -0.0000
   9       2.025e-01      -5.600e-01       1.310e-08         -0.0001
  10       1.725e-01      -5.600e-01       9.197e-08         -0.0001
  11       1.425e-01      -5.600e-01       1.051e-06          0.0002
  12       1.125e-01      -5.600e-01       3.147e-06          0.0005
  13       8.250e-02      -5.600e-01       3.276e-06         -0.0002
  14       5.250e-02      -5.600e-01       6.615e-07         -0.0000
  15       2.250e-02      -5.600e-01       3.319e-07         -0.0001
Strip 2
  16       2.325e-01      -5.067e-01       6.956e-09         -0.0000
  17       2.025e-01      -5.067e-01       1.310e-08         -0.0001
  18       1.725e-01      -5.067e-01       9.197e-08         -0.0001
  19       1.425e-01      -5.067e-01       1.051e-06          0.0002
  20       1.125e-01      -5.067e-01       3.147e-06          0.0005
  21       8.250e-02      -5.067e-01       3.276e-06         -0.0002
  22       5.250e-02      -5.067e-01       6.615e-07         -0.0000
  23       2.250e-02      -5.067e-01       3.319e-07         -0.0001
Strip 3
  24       2.325e-01      -4.533e-01       6.956e-09         -0.0000
  25       2.025e-01      -4.533e-01       1.310e-08         -0.0001
  26       1.725e-01      -4.533e-01       9.197e-08         -0.0001
  27       1.425e-01      -4.533e-01       1.051e-06          0.0002
  28       1.125e-01      -4.533e-01       3.147e-06          0.0005
  29       8.250e-02      -4.533e-01       3.276e-06         -0.0002
  30       5.250e-02      -4.533e-01       6.615e-07         -0.0000
  31       2.250e-02      -4.533e-01       3.319e-07         -0.0001
Strip 4
  32       2.325e-01      -4.000e-01       6.956e-09         -0.0000
  33       2.025e-01      -4.000e-01       1.310e-08         -0.0001
  34       1.725e-01      -4.000e-01       9.197e-08         -0.0001
  35       1.425e-01      -4.000e-01       1.051e-06          0.0002
  36       1.125e-01      -4.000e-01       3.147e-06          0.0005
  37       8.250e-02      -4.000e-01       3.276e-06         -0.0002
  38       5.250e-02      -4.000e-01       6.615e-07         -0.0000
  39       2.250e-02      -4.000e-01       3.319e-07         -0.0001
Strip 5
  40       2.325e-01      -3.467e-01       6.956e-09         -0.0000
  41       2.025e-01      -3.467e-01       1.310e-08         -0.0001
  42       1.725e-01      -3.467e-01       9.197e-08         -0.0001
  43       1.425e-01      -3.467e-01       1.051e-06          0.0002
  44       1.125e-01      -3.467e-01       3.147e-06          0.0005
  45       8.250e-02      -3.467e-01       3.276e-06         -0.0002
  46       5.250e-02      -3.467e-01       6.615e-07         -0.0000
  47       2.250e-02      -3.467e-01       3.319e-07         -0.0001
Strip 6
  48       2.325e-01      -2.933e-01       6.956e-09         -0.0000
  49       2.025e-01      -2.933e-01       1.310e-08         -0.0001
  50       1.725e-01      -2.933e-01       9.197e-08         -0.0001
  51       1.425e-01      -2.933e-01       1.051e-06          0.0002
  52       1.125e-01      -2.933e-01       3.147e-06          0.0005
  53       8.250e-02      -2.933e-01       3.276e-06         -0.0002
  54       5.250e-02      -2.933e-01       6.615e-07         -0.0000
  55       2.250e-02      -2.933e-01       3.319e-07         -0.0001
Strip 7
  56       2.325e-01      -2.400e-01       6.956e-09         -0.0000
  57       2.025e-01      -2.400e-01       1.310e-08         -0.0001
  58       1.725e-01      -2.400e-01       9.197e-08         -0.0001
  59       1.425e-01      -2.400e-01       1.051e-06          0.0002
  60       1.125e-01      -2.400e-01       3.147e-06          0.0005
  61       8.250e-02      -2.400e-01       3.276e-06         -0.0002
  62       5.250e-02      -2.400e-01       6.615e-07         -0.0000
  63       2.250e-02      -2.400e-01       3.319e-07         -0.0001
Strip 8
  64       2.325e-01      -1.867e-01       6.956e-09         -0.0000
  65       2.025e-01      -1.867e-01       1.310e-08         -0.0001
  66       1.725e-01      -1.867e-01       9.197e-08         -0.0001
  67       1.425e-01      -1.867e-01       1.051e-06          0.0002
  68       1.125e-01      -1.867e-01       3.147e-06          0.0005
  69       8.250e-02      -1.867e-01       3.276e-06         -0.0002
  70       5.250e-02      -1.867e-01       6.615e-07         -0.0000
  71       2.250e-02      -1.867e-01       3.319e-07         -0.0001
Strip 9
  72       2.325e-01      -1.333e-01       6.956e-09         -0.0000
  73       2.025e-01      -1.333e-01       1.310e-08         -0.0001
  74       1.725e-01      -1.333e-01       9.197e-08         -0.0001
  75       1.425e-01      -1.333e-01       1.051e-06          0.0002
  76       1.125e-01      -1.333e-01       3.147e-06          0.0005
  77       8.250e-02      -1.333e-01       3.276e-06         -0.0002
  78       5.250e-02      -1.333e-01       6.615e-07         -0.0000
  79       2.250e-02      -1.333e-01       3.319e-07         -0.0001
Strip 10
  80       2.325e-01      -8.000e-02       6.956e-09         -0.0000
  81       2.025e-01      -8.000e-02       1.310e-08         -0.0001
  82       1.725e-01      -8.000e-02       9.197e-08         -0.0001
  83       1.425e-01      -8.000e-02       1.051e-06          0.0002
  84       1.125e-01      -8.000e-02       3.147e-06          0.0005
  85       8.250e-02      -8.000e-02       3.276e-06         -0.0002
  86       5.250e-02      -8.000e-02       6.615e-07         -0.0000
  87       2.250e-02      -8.000e-02       3.319e-07         -0.0001
Strip 11
  88       2.325e-01      -2.667e-02       6.956e-09         -0.0000
  89       2.025e-01      -2.667e-02       1.310e-08         -0.0001
  90       1.725e-01      -2.667e-02       9.197e-08         -0.0001
  91       1.425e-01      -2.667e-02       1.051e-06          0.0002
  92       1.125e-01      -2.667e-02       3.147e-06          0.0005
  93       8.250e-02      -2.667e-02       3.276e-06         -0.0002
  94       5.250e-02      -2.667e-02       6.615e-07         -0.0000
  95       2.250e-02      -2.667e-02       3.319e-07         -0.0001
Strip 12
  96       2.325e-01       2.667e-02       6.956e-09         -0.0000
  97       2.025e-01       2.667e-02       1.310e-08         -0.0001
  98       1.725e-01       2.667e-02       9.197e-08         -0.0001
  99       1.425e-01       2.667e-02       1.051e-06          0.0002
 100       1.125e-01       2.667e-02       3.147e-06          0.0005
 101       8.250e-02       2.667e-02       3.276e-06         -0.0002
 102       5.250e-02       2.667e-02       6.615e-07         -0.0000
 103       2.250e-02       2.667e-02       3.319e-07         -0.0001
Strip 13
 104       2.325e-01       8.000e-02       6.956e-09         -0.0000
 105       2.025e-01       8.000e-02       1.310e-08         -0.0001
 106       1.725e-01       8.000e-02       9.197e-08         -0.0001
 107       1.425e-01       8.000e-02       1.051e-06          0.0002
 108       1.125e-01       8.000e-02       3.147e-06          0.0005
 109       8.250e-02       8.000e-02       3.276e-06         -0.0002
 110       5.250e-02       8.000e-02       6.615e-07         -0.0000
 111       2.250e-02       8.000e-02       3.319e-07         -0.0001
Strip 14
 112       2.325e-01       1.333e-01       6.956e-09         -0.0000
 113       2.025e-01       1.333e-01       1.310e-08         -0.0001
 114       1.725e-01       1.333e-01       9.197e-08         -0.0001
 115       1.425e-01       1.333e-01       1.051e-06          0.0002
 116       1.125e-01       1.333e-01       3.147e-06          0.0005
 117       8.250e-02       1.333e-01       3.276e-06         -0.0002
 118       5.250e-02       1.333e-01       6.615e-07         -0.0000
 119       2.250e-02       1.333e-01       3.319e-07         -0.0001
Strip 15
 120       2.325e-01       1.867e-01       6.956e-09         -0.0000
 121       2.025e-01       1.867e-01       1.310e-08         -0.0001
 122       1.725e-01       1.867e-01       9.197e-08         -0.0001
 123       1.425e-01       1.867e-01       1.051e-06          0.0002
 124       1.125e-01       1.867e-01       3.147e-06          0.0005
 125       8.250e-02       1.867e-01       3.276e-06         -0.0002
 126       5.250e-02       1.867e-01       6.615e-07         -0.0000
 127       2.250e-02       1.867e-01       3.319e-07         -0.0001
Strip 16
 128       2.325e-01       2.400e-01       6.956e-09         -0.0000
 129       2.025e-01       2.400e-01       1.310e-08         -0.0001
 130       1.725e-01       2.400e-01       9.197e-08         -0.0001
 131       1.425e-01       2.400e-01       1.051e-06          0.0002
 132       1.125e-01       2.400e-01       3.147e-06          0.0005
 133       8.250e-02       2.400e-01       3.276e-06         -0.0002
 134       5.250e-02       2.400e-01       6.615e-07         -0.0000
 135       2.250e-02       2.400e-01       3.319e-07         -0.0001
Strip 17
 136       2.325e-01       2.933e-01       6.956e-09         -0.0000
 137       2.025e-01       2.933e-01       1.310e-08         -0.0001
 138       1.725e-01       2.933e-01       9.197e-08         -0.0001
 139       1.425e-01       2.933e-01       1.051e-06          0.0002
 140       1.125e-01       2.933e-01       3.147e-06          0.0005
 141       8.250e-02       2.933e-01       3.276e-06         -0.0002
 142       5.250e-02       2.933e-01       6.615e-07         -0.0000
 143       2.250e-02       2.933e-01       3.319e-07         -0.0001
Strip 18
 144       2.325e-01       3.467e-01       6.956e-09         -0.0000
 145       2.025e-01       3.467e-01       1.310e-08         -0.0001
 146       1.725e-01       3.467e-01       9.197e-08         -0.0001
 147       1.425e-01       3.467e-01       1.051e-06          0.0002
 148       1.125e-01       3.467e-01       3.147e-06          0.0005
 149       8.250e-02       3.467e-01       3.276e-06         -0.0002
 150       5.250e-02       3.467e-01       6.615e-07         -0.0000
 151       2.250e-02       3.467e-01       3.319e-07         -0.0001
Strip 19
 152       2.325e-01       4.000e-01       6.956e-09         -0.0000
 153       2.025e-01       4.000e-01       1.310e-08         -0.0001
 154       1.725e-01       4.000e-01       9.197e-08         -0.0001
 155       1.425e-01       4.000e-01       1.051e-06          0.0002
 156       1.125e-01       4.000e-01       3.147e-06          0.0005
 157       8.250e-02       4.000e-01       3.276e-06         -0.0002
 158       5.250e-02       4.000e-01       6.615e-07         -0.0000
 159       2.250e-02       4.000e-01       3.319e-07         -0.0001
Strip 20
 160       2.325e-01       4.533e-01       6.956e-09         -0.0000
 161       2.025e-01       4.533e-01       1.310e-08         -0.0001
 162       1.725e-01       4.533e-01       9.197e-08         -0.0001
 163       1.425e-01       4.533e-01       1.051e-06          0.0002
 164       1.125e-01       4.533e-01       3.147e-06          0.0005
 165       8.250e-02       4.533e-01       3.276e-06         -0.0002
 166       5.250e-02       4.533e-01       6.615e-07         -0.0000
 167       2.250e-02       4.533e-01       3.319e-07         -0.0001
Strip 21
 168       2.325e-01       5.067e-01       6.956e-09         -0.0000
 169       2.025e-01       5.067e-01       1.310e-08         -0.0001
 170       1.725e-01       5.067e-01       9.197e-08         -0.0001
 171       1.425e-01       5.067e-01       1.051e-06          0.0002
 172       1.125e-01       5.067e-01       3.147e-06          0.0005
 173       8.250e-02       5.067e-01       3.276e-06         -0.0002
 174       5.250e-02       5.067e-01       6.615e-07         -0.0000
 175       2.250e-02       5.067e-01       3.319e-07         -0.0001
Strip 22
 176       2.325e-01       5.600e-01       6.956e-09         -0.0000
 177       2.025e-01       5.600e-01       1.310e-08         -0.0001
 178       1.725e-01       5.600e-01       9.197e-08         -0.0001
 179       1.425e-01       5.600e-01       1.051e-06          0.0002
 180       1.125e-01       5.600e-01       3.147e-06          0.0005
 181       8.250e-02       5.600e-01       3.276e-06         -0.0002
 182       5.250e-02       5.600e-01       6.615e-07         -0.0000
 183       2.250e-02       5.600e-01       3.319e-07         -0.0001
Strip 23
 184       2.325e-01       6.133e-01       6.956e-09         -0.0000
 185       2.025e-01       6.133e-01       1.310e-08         -0.0001
 186       1.725e-01       6.133e-01       9.197e-08         -0.0001
 187       1.425e-01       6.133e-01       1.051e-06          0.0002
 188       1.125e-01       6.133e-01       3.147e-06          0.0004
 189       8.250e-02       6.133e-01       3.276e-06         -0.0002
 190       5.250e-02       6.133e-01       6.615e-07         -0.0000
 191       2.250e-02       6.133e-01       3.319e-07         -0.0001
Strip 24
 192       0.000e+00       0.000e+00       0.000e+00         -0.1495
 193       0.000e+00       0.000e+00       0.000e+00         -0.2384
 194       0.000e+00       0.000e+00       0.000e+00         -0.3299
 195       0.000e+00       0.000e+00       0.000e+00         -0.4642
 196       0.000e+00       0.000e+00       0.000e+00         -0.6454
 197       0.000e+00       0.000e+00       0.000e+00         -0.8894
 198       0.000e+00       0.000e+00       0.000e+00         -1.4978
 199       0.000e+00       0.000e+00       0.000e+00         -3.9700










