XFLR5 v6.02 Beta

NAC642A015 Wing
T1-54.4 m/s-VLM1-x0.000mm
QInf  =   54.400000 m/s
Alpha =   14.500000
Beta  =    0.000°
Phi   =    0.000°
Ctrl  =   18.000
CL    =    1.009595
Cy    =    0.000000
Cd    =    0.087304     ICd   =    0.060902     PCd   =    0.026403
Cl   = -2.21982e-17
Cm   =    -0.23979
ICn   =   -0.000000     PCn   =   -0.000000 
XCP   =    0.058878     YCP   =   -0.000000 
XNP   =    0.000000
Bend. =   73.287919

NAC642A015 Wing
  y-span        Chord      Ai         Cl        PCd          ICd        CmGeom      CmAirf      XTrtop    XTrBot      XCP       BM
   -0.6133     0.2400   -10.167    0.514284    0.007759    0.048359   -0.105495    0.025035     0.3630    0.7846    0.2021    0.0000
   -0.5600     0.2400    -9.203    0.729084    0.012173    0.061648   -0.160790    0.023393     0.0336    0.8973    0.2182    0.6461
   -0.5067     0.2400    -8.369    0.863165    0.014358    0.066002   -0.197956    0.019225     0.0218    0.9786    0.2279    2.2038
   -0.4533     0.2400    -7.666    0.955964    0.016328    0.066653   -0.224263    0.015460     0.0181    1.0000    0.2339    4.8365
   -0.4000     0.2400    -7.087    1.023276    0.019182    0.065720   -0.243377    0.012521     0.0164    1.0000    0.2378    8.6557
   -0.3467     0.2400    -6.619    1.073311    0.023821    0.064197   -0.257494    0.010323     0.0153    1.0000    0.2404   13.7415
   -0.2933     0.2400    -6.246    1.110895    0.027393    0.062564   -0.268004    0.008706     0.0149    1.0000    0.2421   20.1529
   -0.2400     0.2400    -5.955    1.139061    0.031300    0.061059   -0.275810    0.007529     0.0144    1.0000    0.2434   27.9339
   -0.1867     0.2400    -5.735    1.159789    0.035602    0.059794   -0.281509    0.006688     0.0140    1.0000    0.2442   37.1174
   -0.1333     0.2400    -5.577    1.174384    0.039562    0.058822   -0.285497    0.006111     0.0136    1.0000    0.2448   47.7273
   -0.0800     0.2400    -5.475    1.183694    0.042919    0.058167   -0.288029    0.005750     0.0133    1.0000    0.2451   59.7806
   -0.0267     0.2400    -5.425    1.188228    0.046433    0.057837   -0.289259    0.005577     0.0130    1.0000    0.2453   73.2879
    0.0267     0.2400    -5.425    1.188228    0.046433    0.057837   -0.289259    0.005577     0.0130    1.0000    0.2453   73.2879
    0.0800     0.2400    -5.475    1.183694    0.042919    0.058167   -0.288029    0.005750     0.0133    1.0000    0.2451   59.7806
    0.1333     0.2400    -5.577    1.174384    0.039562    0.058822   -0.285497    0.006111     0.0136    1.0000    0.2448   47.7273
    0.1867     0.2400    -5.735    1.159789    0.035602    0.059794   -0.281509    0.006688     0.0140    1.0000    0.2442   37.1174
    0.2400     0.2400    -5.955    1.139061    0.031300    0.061059   -0.275810    0.007529     0.0144    1.0000    0.2434   27.9339
    0.2933     0.2400    -6.246    1.110895    0.027393    0.062564   -0.268004    0.008706     0.0149    1.0000    0.2421   20.1529
    0.3467     0.2400    -6.619    1.073311    0.023821    0.064197   -0.257494    0.010323     0.0153    1.0000    0.2404   13.7415
    0.4000     0.2400    -7.087    1.023276    0.019182    0.065720   -0.243377    0.012521     0.0164    1.0000    0.2378    8.6557
    0.4533     0.2400    -7.666    0.955964    0.016328    0.066653   -0.224263    0.015460     0.0181    1.0000    0.2339    4.8365
    0.5067     0.2400    -8.369    0.863165    0.014358    0.066002   -0.197956    0.019225     0.0218    0.9786    0.2279    2.2038
    0.5600     0.2400    -9.203    0.729084    0.012173    0.061648   -0.160790    0.023393     0.0336    0.8973    0.2182    0.6461
    0.6133     0.2400   -10.167    0.514284    0.007759    0.048359   -0.105495    0.025035     0.3630    0.7846    0.2021    0.0000


Wing Cp Coefficients
 Panel     CtrlPt.x        CtrlPt.y        CtrlPt.z             Cp
NAC642A015 WingCp Coefficients
Strip 1
   8       2.325e-01      -5.600e-01       6.956e-09          0.1177
   9       2.025e-01      -5.600e-01       1.310e-08          0.1933
  10       1.725e-01      -5.600e-01       9.197e-08          0.2711
  11       1.425e-01      -5.600e-01       1.051e-06          0.3663
  12       1.125e-01      -5.600e-01       3.147e-06          0.4976
  13       8.250e-02      -5.600e-01       3.276e-06          0.7044
  14       5.250e-02      -5.600e-01       6.615e-07          1.1111
  15       2.250e-02      -5.600e-01       3.319e-07          2.6323
Strip 2
  16       2.325e-01      -5.067e-01       6.956e-09          0.1486
  17       2.025e-01      -5.067e-01       1.310e-08          0.2447
  18       1.725e-01      -5.067e-01       9.197e-08          0.3427
  19       1.425e-01      -5.067e-01       1.051e-06          0.4600
  20       1.125e-01      -5.067e-01       3.147e-06          0.6171
  21       8.250e-02      -5.067e-01       3.276e-06          0.8554
  22       5.250e-02      -5.067e-01       6.615e-07          1.3071
  23       2.250e-02      -5.067e-01       3.319e-07          2.9741
Strip 3
  24       2.325e-01      -4.533e-01       6.956e-09          0.1724
  25       2.025e-01      -4.533e-01       1.310e-08          0.2834
  26       1.725e-01      -4.533e-01       9.197e-08          0.3952
  27       1.425e-01      -4.533e-01       1.051e-06          0.5267
  28       1.125e-01      -4.533e-01       3.147e-06          0.6993
  29       8.250e-02      -4.533e-01       3.276e-06          0.9558
  30       5.250e-02      -4.533e-01       6.615e-07          1.4354
  31       2.250e-02      -4.533e-01       3.319e-07          3.2029
Strip 4
  32       2.325e-01      -4.000e-01       6.956e-09          0.1905
  33       2.025e-01      -4.000e-01       1.310e-08          0.3124
  34       1.725e-01      -4.000e-01       9.197e-08          0.4339
  35       1.425e-01      -4.000e-01       1.051e-06          0.5750
  36       1.125e-01      -4.000e-01       3.147e-06          0.7577
  37       8.250e-02      -4.000e-01       3.276e-06          1.0265
  38       5.250e-02      -4.000e-01       6.615e-07          1.5257
  39       2.250e-02      -4.000e-01       3.319e-07          3.3671
Strip 5
  40       2.325e-01      -3.467e-01       6.956e-09          0.2042
  41       2.025e-01      -3.467e-01       1.310e-08          0.3341
  42       1.725e-01      -3.467e-01       9.197e-08          0.4626
  43       1.425e-01      -3.467e-01       1.051e-06          0.6105
  44       1.125e-01      -3.467e-01       3.147e-06          0.8004
  45       8.250e-02      -3.467e-01       3.276e-06          1.0779
  46       5.250e-02      -3.467e-01       6.615e-07          1.5918
  47       2.250e-02      -3.467e-01       3.319e-07          3.4889
Strip 6
  48       2.325e-01      -2.933e-01       6.956e-09          0.2145
  49       2.025e-01      -2.933e-01       1.310e-08          0.3503
  50       1.725e-01      -2.933e-01       9.197e-08          0.4839
  51       1.425e-01      -2.933e-01       1.051e-06          0.6368
  52       1.125e-01      -2.933e-01       3.147e-06          0.8319
  53       8.250e-02      -2.933e-01       3.276e-06          1.1160
  54       5.250e-02      -2.933e-01       6.615e-07          1.6409
  55       2.250e-02      -2.933e-01       3.319e-07          3.5805
Strip 7
  56       2.325e-01      -2.400e-01       6.956e-09          0.2222
  57       2.025e-01      -2.400e-01       1.310e-08          0.3624
  58       1.725e-01      -2.400e-01       9.197e-08          0.4998
  59       1.425e-01      -2.400e-01       1.051e-06          0.6562
  60       1.125e-01      -2.400e-01       3.147e-06          0.8552
  61       8.250e-02      -2.400e-01       3.276e-06          1.1442
  62       5.250e-02      -2.400e-01       6.615e-07          1.6774
  63       2.250e-02      -2.400e-01       3.319e-07          3.6494
Strip 8
  64       2.325e-01      -1.867e-01       6.956e-09          0.2278
  65       2.025e-01      -1.867e-01       1.310e-08          0.3713
  66       1.725e-01      -1.867e-01       9.197e-08          0.5113
  67       1.425e-01      -1.867e-01       1.051e-06          0.6704
  68       1.125e-01      -1.867e-01       3.147e-06          0.8722
  69       8.250e-02      -1.867e-01       3.276e-06          1.1648
  70       5.250e-02      -1.867e-01       6.615e-07          1.7043
  71       2.250e-02      -1.867e-01       3.319e-07          3.7003
Strip 9
  72       2.325e-01      -1.333e-01       6.956e-09          0.2318
  73       2.025e-01      -1.333e-01       1.310e-08          0.3775
  74       1.725e-01      -1.333e-01       9.197e-08          0.5194
  75       1.425e-01      -1.333e-01       1.051e-06          0.6803
  76       1.125e-01      -1.333e-01       3.147e-06          0.8841
  77       8.250e-02      -1.333e-01       3.276e-06          1.1792
  78       5.250e-02      -1.333e-01       6.615e-07          1.7231
  79       2.250e-02      -1.333e-01       3.319e-07          3.7362
Strip 10
  80       2.325e-01      -8.000e-02       6.956e-09          0.2343
  81       2.025e-01      -8.000e-02       1.310e-08          0.3814
  82       1.725e-01      -8.000e-02       9.197e-08          0.5245
  83       1.425e-01      -8.000e-02       1.051e-06          0.6865
  84       1.125e-01      -8.000e-02       3.147e-06          0.8916
  85       8.250e-02      -8.000e-02       3.276e-06          1.1884
  86       5.250e-02      -8.000e-02       6.615e-07          1.7351
  87       2.250e-02      -8.000e-02       3.319e-07          3.7592
Strip 11
  88       2.325e-01      -2.667e-02       6.956e-09          0.2355
  89       2.025e-01      -2.667e-02       1.310e-08          0.3833
  90       1.725e-01      -2.667e-02       9.197e-08          0.5270
  91       1.425e-01      -2.667e-02       1.051e-06          0.6896
  92       1.125e-01      -2.667e-02       3.147e-06          0.8952
  93       8.250e-02      -2.667e-02       3.276e-06          1.1928
  94       5.250e-02      -2.667e-02       6.615e-07          1.7410
  95       2.250e-02      -2.667e-02       3.319e-07          3.7704
Strip 12
  96       2.325e-01       2.667e-02       6.956e-09          0.2355
  97       2.025e-01       2.667e-02       1.310e-08          0.3833
  98       1.725e-01       2.667e-02       9.197e-08          0.5270
  99       1.425e-01       2.667e-02       1.051e-06          0.6896
 100       1.125e-01       2.667e-02       3.147e-06          0.8952
 101       8.250e-02       2.667e-02       3.276e-06          1.1928
 102       5.250e-02       2.667e-02       6.615e-07          1.7410
 103       2.250e-02       2.667e-02       3.319e-07          3.7704
Strip 13
 104       2.325e-01       8.000e-02       6.956e-09          0.2343
 105       2.025e-01       8.000e-02       1.310e-08          0.3814
 106       1.725e-01       8.000e-02       9.197e-08          0.5245
 107       1.425e-01       8.000e-02       1.051e-06          0.6865
 108       1.125e-01       8.000e-02       3.147e-06          0.8916
 109       8.250e-02       8.000e-02       3.276e-06          1.1884
 110       5.250e-02       8.000e-02       6.615e-07          1.7351
 111       2.250e-02       8.000e-02       3.319e-07          3.7592
Strip 14
 112       2.325e-01       1.333e-01       6.956e-09          0.2318
 113       2.025e-01       1.333e-01       1.310e-08          0.3775
 114       1.725e-01       1.333e-01       9.197e-08          0.5194
 115       1.425e-01       1.333e-01       1.051e-06          0.6803
 116       1.125e-01       1.333e-01       3.147e-06          0.8841
 117       8.250e-02       1.333e-01       3.276e-06          1.1792
 118       5.250e-02       1.333e-01       6.615e-07          1.7231
 119       2.250e-02       1.333e-01       3.319e-07          3.7362
Strip 15
 120       2.325e-01       1.867e-01       6.956e-09          0.2278
 121       2.025e-01       1.867e-01       1.310e-08          0.3713
 122       1.725e-01       1.867e-01       9.197e-08          0.5113
 123       1.425e-01       1.867e-01       1.051e-06          0.6704
 124       1.125e-01       1.867e-01       3.147e-06          0.8722
 125       8.250e-02       1.867e-01       3.276e-06          1.1648
 126       5.250e-02       1.867e-01       6.615e-07          1.7043
 127       2.250e-02       1.867e-01       3.319e-07          3.7003
Strip 16
 128       2.325e-01       2.400e-01       6.956e-09          0.2222
 129       2.025e-01       2.400e-01       1.310e-08          0.3624
 130       1.725e-01       2.400e-01       9.197e-08          0.4998
 131       1.425e-01       2.400e-01       1.051e-06          0.6562
 132       1.125e-01       2.400e-01       3.147e-06          0.8552
 133       8.250e-02       2.400e-01       3.276e-06          1.1442
 134       5.250e-02       2.400e-01       6.615e-07          1.6774
 135       2.250e-02       2.400e-01       3.319e-07          3.6494
Strip 17
 136       2.325e-01       2.933e-01       6.956e-09          0.2145
 137       2.025e-01       2.933e-01       1.310e-08          0.3503
 138       1.725e-01       2.933e-01       9.197e-08          0.4839
 139       1.425e-01       2.933e-01       1.051e-06          0.6368
 140       1.125e-01       2.933e-01       3.147e-06          0.8319
 141       8.250e-02       2.933e-01       3.276e-06          1.1160
 142       5.250e-02       2.933e-01       6.615e-07          1.6409
 143       2.250e-02       2.933e-01       3.319e-07          3.5805
Strip 18
 144       2.325e-01       3.467e-01       6.956e-09          0.2042
 145       2.025e-01       3.467e-01       1.310e-08          0.3341
 146       1.725e-01       3.467e-01       9.197e-08          0.4626
 147       1.425e-01       3.467e-01       1.051e-06          0.6105
 148       1.125e-01       3.467e-01       3.147e-06          0.8004
 149       8.250e-02       3.467e-01       3.276e-06          1.0779
 150       5.250e-02       3.467e-01       6.615e-07          1.5918
 151       2.250e-02       3.467e-01       3.319e-07          3.4889
Strip 19
 152       2.325e-01       4.000e-01       6.956e-09          0.1905
 153       2.025e-01       4.000e-01       1.310e-08          0.3124
 154       1.725e-01       4.000e-01       9.197e-08          0.4339
 155       1.425e-01       4.000e-01       1.051e-06          0.5750
 156       1.125e-01       4.000e-01       3.147e-06          0.7577
 157       8.250e-02       4.000e-01       3.276e-06          1.0265
 158       5.250e-02       4.000e-01       6.615e-07          1.5257
 159       2.250e-02       4.000e-01       3.319e-07          3.3671
Strip 20
 160       2.325e-01       4.533e-01       6.956e-09          0.1724
 161       2.025e-01       4.533e-01       1.310e-08          0.2834
 162       1.725e-01       4.533e-01       9.197e-08          0.3952
 163       1.425e-01       4.533e-01       1.051e-06          0.5267
 164       1.125e-01       4.533e-01       3.147e-06          0.6993
 165       8.250e-02       4.533e-01       3.276e-06          0.9558
 166       5.250e-02       4.533e-01       6.615e-07          1.4354
 167       2.250e-02       4.533e-01       3.319e-07          3.2029
Strip 21
 168       2.325e-01       5.067e-01       6.956e-09          0.1486
 169       2.025e-01       5.067e-01       1.310e-08          0.2447
 170       1.725e-01       5.067e-01       9.197e-08          0.3427
 171       1.425e-01       5.067e-01       1.051e-06          0.4600
 172       1.125e-01       5.067e-01       3.147e-06          0.6171
 173       8.250e-02       5.067e-01       3.276e-06          0.8554
 174       5.250e-02       5.067e-01       6.615e-07          1.3071
 175       2.250e-02       5.067e-01       3.319e-07          2.9741
Strip 22
 176       2.325e-01       5.600e-01       6.956e-09          0.1177
 177       2.025e-01       5.600e-01       1.310e-08          0.1933
 178       1.725e-01       5.600e-01       9.197e-08          0.2711
 179       1.425e-01       5.600e-01       1.051e-06          0.3663
 180       1.125e-01       5.600e-01       3.147e-06          0.4976
 181       8.250e-02       5.600e-01       3.276e-06          0.7044
 182       5.250e-02       5.600e-01       6.615e-07          1.1111
 183       2.250e-02       5.600e-01       3.319e-07          2.6323
Strip 23
 184       2.325e-01       6.133e-01       6.956e-09          0.0767
 185       2.025e-01       6.133e-01       1.310e-08          0.1239
 186       1.725e-01       6.133e-01       9.197e-08          0.1722
 187       1.425e-01       6.133e-01       1.051e-06          0.2323
 188       1.125e-01       6.133e-01       3.147e-06          0.3175
 189       8.250e-02       6.133e-01       3.276e-06          0.4592
 190       5.250e-02       6.133e-01       6.615e-07          0.7658
 191       2.250e-02       6.133e-01       3.319e-07          2.0293
Strip 24
 192       0.000e+00       0.000e+00       0.000e+00         -4.3042
 193       0.000e+00       0.000e+00       0.000e+00         -6.9509
 194       0.000e+00       0.000e+00       0.000e+00         -9.6623
 195       0.000e+00       0.000e+00       0.000e+00        -13.0315
 196       0.000e+00       0.000e+00       0.000e+00        -17.8151
 197       0.000e+00       0.000e+00       0.000e+00        -25.7639
 198       0.000e+00       0.000e+00       0.000e+00        -42.9639
 199       0.000e+00       0.000e+00       0.000e+00       -113.8546










