XFLR5 v6.02 Beta

NAC642A015 Wing
T1-54.4 m/s-VLM1-x0.000mm
QInf  =   54.400000 m/s
Alpha =    6.500000
Beta  =    0.000°
Phi   =    0.000°
Ctrl  =   18.000
CL    =    0.467807
Cy    =    0.000000
Cd    =    0.020522     ICd   =    0.012777     PCd   =    0.007745
Cl   = -2.65306e-18
Cm   =   -0.111268
ICn   =   -0.000000     PCn   =   -0.000000 
XCP   =    0.057453     YCP   =   -0.000000 
XNP   =    0.000000
Bend. =   34.006439

NAC642A015 Wing
  y-span        Chord      Ai         Cl        PCd          ICd        CmGeom      CmAirf      XTrtop    XTrBot      XCP       BM
   -0.6133     0.2400    -4.757    0.241524    0.006511    0.010146   -0.048953    0.011615     0.5956    0.7084    0.2021    0.0000
   -0.5600     0.2400    -4.300    0.341117    0.006610    0.012934   -0.074611    0.010852     0.5561    0.7344    0.2183    0.2998
   -0.5067     0.2400    -3.905    0.402550    0.006762    0.013847   -0.091857    0.008918     0.5244    0.7507    0.2279    1.0226
   -0.4533     0.2400    -3.574    0.444629    0.006866    0.013984   -0.104064    0.007171     0.5025    0.7620    0.2339    2.2442
   -0.4000     0.2400    -3.302    0.474890    0.007063    0.013788   -0.112933    0.005807     0.4643    0.7709    0.2378    4.0163
   -0.3467     0.2400    -3.082    0.497229    0.007237    0.013468   -0.119484    0.004787     0.4308    0.7776    0.2404    6.3762
   -0.2933     0.2400    -2.907    0.513918    0.007743    0.013126   -0.124360    0.004036     0.3650    0.7844    0.2421    9.3512
   -0.2400     0.2400    -2.771    0.526373    0.008291    0.012810   -0.127982    0.003490     0.2973    0.7903    0.2434   12.9617
   -0.1867     0.2400    -2.668    0.535510    0.008692    0.012545   -0.130627    0.003100     0.2476    0.7947    0.2442   17.2229
   -0.1333     0.2400    -2.594    0.541928    0.008961    0.012341   -0.132477    0.002833     0.2150    0.7977    0.2448   22.1460
   -0.0800     0.2400    -2.546    0.546015    0.009073    0.012203   -0.133652    0.002665     0.2048    0.7995    0.2451   27.7389
   -0.0267     0.2400    -2.523    0.548004    0.009127    0.012134   -0.134223    0.002585     0.1998    0.8003    0.2453   34.0064
    0.0267     0.2400    -2.523    0.548004    0.009127    0.012134   -0.134223    0.002585     0.1998    0.8003    0.2453   34.0064
    0.0800     0.2400    -2.546    0.546015    0.009073    0.012203   -0.133652    0.002665     0.2048    0.7995    0.2451   27.7389
    0.1333     0.2400    -2.594    0.541928    0.008961    0.012341   -0.132477    0.002833     0.2150    0.7977    0.2448   22.1460
    0.1867     0.2400    -2.668    0.535510    0.008692    0.012545   -0.130627    0.003100     0.2476    0.7947    0.2442   17.2229
    0.2400     0.2400    -2.771    0.526373    0.008291    0.012810   -0.127982    0.003490     0.2973    0.7903    0.2434   12.9617
    0.2933     0.2400    -2.907    0.513918    0.007743    0.013126   -0.124360    0.004036     0.3650    0.7844    0.2421    9.3512
    0.3467     0.2400    -3.082    0.497229    0.007237    0.013468   -0.119484    0.004787     0.4308    0.7776    0.2404    6.3762
    0.4000     0.2400    -3.302    0.474890    0.007063    0.013788   -0.112933    0.005807     0.4643    0.7709    0.2378    4.0163
    0.4533     0.2400    -3.574    0.444629    0.006866    0.013984   -0.104064    0.007171     0.5025    0.7620    0.2339    2.2442
    0.5067     0.2400    -3.905    0.402550    0.006762    0.013847   -0.091857    0.008918     0.5244    0.7507    0.2279    1.0226
    0.5600     0.2400    -4.300    0.341117    0.006610    0.012934   -0.074611    0.010852     0.5561    0.7344    0.2183    0.2998
    0.6133     0.2400    -4.757    0.241524    0.006511    0.010146   -0.048953    0.011615     0.5956    0.7084    0.2021    0.0000


Wing Cp Coefficients
 Panel     CtrlPt.x        CtrlPt.y        CtrlPt.z             Cp
NAC642A015 WingCp Coefficients
Strip 1
   8       2.325e-01      -5.600e-01       6.956e-09          0.0546
   9       2.025e-01      -5.600e-01       1.310e-08          0.0897
  10       1.725e-01      -5.600e-01       9.197e-08          0.1257
  11       1.425e-01      -5.600e-01       1.051e-06          0.1701
  12       1.125e-01      -5.600e-01       3.147e-06          0.2312
  13       8.250e-02      -5.600e-01       3.276e-06          0.3267
  14       5.250e-02      -5.600e-01       6.615e-07          0.5155
  15       2.250e-02      -5.600e-01       3.319e-07          1.2213
Strip 2
  16       2.325e-01      -5.067e-01       6.956e-09          0.0690
  17       2.025e-01      -5.067e-01       1.310e-08          0.1135
  18       1.725e-01      -5.067e-01       9.197e-08          0.1589
  19       1.425e-01      -5.067e-01       1.051e-06          0.2136
  20       1.125e-01      -5.067e-01       3.147e-06          0.2866
  21       8.250e-02      -5.067e-01       3.276e-06          0.3968
  22       5.250e-02      -5.067e-01       6.615e-07          0.6065
  23       2.250e-02      -5.067e-01       3.319e-07          1.3799
Strip 3
  24       2.325e-01      -4.533e-01       6.956e-09          0.0800
  25       2.025e-01      -4.533e-01       1.310e-08          0.1315
  26       1.725e-01      -4.533e-01       9.197e-08          0.1833
  27       1.425e-01      -4.533e-01       1.051e-06          0.2445
  28       1.125e-01      -4.533e-01       3.147e-06          0.3247
  29       8.250e-02      -4.533e-01       3.276e-06          0.4434
  30       5.250e-02      -4.533e-01       6.615e-07          0.6660
  31       2.250e-02      -4.533e-01       3.319e-07          1.4861
Strip 4
  32       2.325e-01      -4.000e-01       6.956e-09          0.0884
  33       2.025e-01      -4.000e-01       1.310e-08          0.1449
  34       1.725e-01      -4.000e-01       9.197e-08          0.2012
  35       1.425e-01      -4.000e-01       1.051e-06          0.2669
  36       1.125e-01      -4.000e-01       3.147e-06          0.3519
  37       8.250e-02      -4.000e-01       3.276e-06          0.4762
  38       5.250e-02      -4.000e-01       6.615e-07          0.7079
  39       2.250e-02      -4.000e-01       3.319e-07          1.5623
Strip 5
  40       2.325e-01      -3.467e-01       6.956e-09          0.0947
  41       2.025e-01      -3.467e-01       1.310e-08          0.1550
  42       1.725e-01      -3.467e-01       9.197e-08          0.2146
  43       1.425e-01      -3.467e-01       1.051e-06          0.2834
  44       1.125e-01      -3.467e-01       3.147e-06          0.3716
  45       8.250e-02      -3.467e-01       3.276e-06          0.5001
  46       5.250e-02      -3.467e-01       6.615e-07          0.7386
  47       2.250e-02      -3.467e-01       3.319e-07          1.6188
Strip 6
  48       2.325e-01      -2.933e-01       6.956e-09          0.0995
  49       2.025e-01      -2.933e-01       1.310e-08          0.1625
  50       1.725e-01      -2.933e-01       9.197e-08          0.2245
  51       1.425e-01      -2.933e-01       1.051e-06          0.2956
  52       1.125e-01      -2.933e-01       3.147e-06          0.3863
  53       8.250e-02      -2.933e-01       3.276e-06          0.5177
  54       5.250e-02      -2.933e-01       6.615e-07          0.7613
  55       2.250e-02      -2.933e-01       3.319e-07          1.6613
Strip 7
  56       2.325e-01      -2.400e-01       6.956e-09          0.1031
  57       2.025e-01      -2.400e-01       1.310e-08          0.1681
  58       1.725e-01      -2.400e-01       9.197e-08          0.2318
  59       1.425e-01      -2.400e-01       1.051e-06          0.3046
  60       1.125e-01      -2.400e-01       3.147e-06          0.3971
  61       8.250e-02      -2.400e-01       3.276e-06          0.5308
  62       5.250e-02      -2.400e-01       6.615e-07          0.7783
  63       2.250e-02      -2.400e-01       3.319e-07          1.6933
Strip 8
  64       2.325e-01      -1.867e-01       6.956e-09          0.1057
  65       2.025e-01      -1.867e-01       1.310e-08          0.1722
  66       1.725e-01      -1.867e-01       9.197e-08          0.2372
  67       1.425e-01      -1.867e-01       1.051e-06          0.3112
  68       1.125e-01      -1.867e-01       3.147e-06          0.4050
  69       8.250e-02      -1.867e-01       3.276e-06          0.5404
  70       5.250e-02      -1.867e-01       6.615e-07          0.7908
  71       2.250e-02      -1.867e-01       3.319e-07          1.7169
Strip 9
  72       2.325e-01      -1.333e-01       6.956e-09          0.1075
  73       2.025e-01      -1.333e-01       1.310e-08          0.1751
  74       1.725e-01      -1.333e-01       9.197e-08          0.2409
  75       1.425e-01      -1.333e-01       1.051e-06          0.3158
  76       1.125e-01      -1.333e-01       3.147e-06          0.4105
  77       8.250e-02      -1.333e-01       3.276e-06          0.5470
  78       5.250e-02      -1.333e-01       6.615e-07          0.7995
  79       2.250e-02      -1.333e-01       3.319e-07          1.7336
Strip 10
  80       2.325e-01      -8.000e-02       6.956e-09          0.1087
  81       2.025e-01      -8.000e-02       1.310e-08          0.1769
  82       1.725e-01      -8.000e-02       9.197e-08          0.2433
  83       1.425e-01      -8.000e-02       1.051e-06          0.3187
  84       1.125e-01      -8.000e-02       3.147e-06          0.4140
  85       8.250e-02      -8.000e-02       3.276e-06          0.5513
  86       5.250e-02      -8.000e-02       6.615e-07          0.8051
  87       2.250e-02      -8.000e-02       3.319e-07          1.7442
Strip 11
  88       2.325e-01      -2.667e-02       6.956e-09          0.1093
  89       2.025e-01      -2.667e-02       1.310e-08          0.1778
  90       1.725e-01      -2.667e-02       9.197e-08          0.2445
  91       1.425e-01      -2.667e-02       1.051e-06          0.3201
  92       1.125e-01      -2.667e-02       3.147e-06          0.4157
  93       8.250e-02      -2.667e-02       3.276e-06          0.5534
  94       5.250e-02      -2.667e-02       6.615e-07          0.8078
  95       2.250e-02      -2.667e-02       3.319e-07          1.7494
Strip 12
  96       2.325e-01       2.667e-02       6.956e-09          0.1093
  97       2.025e-01       2.667e-02       1.310e-08          0.1778
  98       1.725e-01       2.667e-02       9.197e-08          0.2445
  99       1.425e-01       2.667e-02       1.051e-06          0.3201
 100       1.125e-01       2.667e-02       3.147e-06          0.4157
 101       8.250e-02       2.667e-02       3.276e-06          0.5534
 102       5.250e-02       2.667e-02       6.615e-07          0.8078
 103       2.250e-02       2.667e-02       3.319e-07          1.7494
Strip 13
 104       2.325e-01       8.000e-02       6.956e-09          0.1087
 105       2.025e-01       8.000e-02       1.310e-08          0.1769
 106       1.725e-01       8.000e-02       9.197e-08          0.2433
 107       1.425e-01       8.000e-02       1.051e-06          0.3187
 108       1.125e-01       8.000e-02       3.147e-06          0.4140
 109       8.250e-02       8.000e-02       3.276e-06          0.5513
 110       5.250e-02       8.000e-02       6.615e-07          0.8051
 111       2.250e-02       8.000e-02       3.319e-07          1.7442
Strip 14
 112       2.325e-01       1.333e-01       6.956e-09          0.1075
 113       2.025e-01       1.333e-01       1.310e-08          0.1751
 114       1.725e-01       1.333e-01       9.197e-08          0.2409
 115       1.425e-01       1.333e-01       1.051e-06          0.3158
 116       1.125e-01       1.333e-01       3.147e-06          0.4105
 117       8.250e-02       1.333e-01       3.276e-06          0.5470
 118       5.250e-02       1.333e-01       6.615e-07          0.7995
 119       2.250e-02       1.333e-01       3.319e-07          1.7336
Strip 15
 120       2.325e-01       1.867e-01       6.956e-09          0.1057
 121       2.025e-01       1.867e-01       1.310e-08          0.1722
 122       1.725e-01       1.867e-01       9.197e-08          0.2372
 123       1.425e-01       1.867e-01       1.051e-06          0.3112
 124       1.125e-01       1.867e-01       3.147e-06          0.4050
 125       8.250e-02       1.867e-01       3.276e-06          0.5404
 126       5.250e-02       1.867e-01       6.615e-07          0.7908
 127       2.250e-02       1.867e-01       3.319e-07          1.7169
Strip 16
 128       2.325e-01       2.400e-01       6.956e-09          0.1031
 129       2.025e-01       2.400e-01       1.310e-08          0.1681
 130       1.725e-01       2.400e-01       9.197e-08          0.2318
 131       1.425e-01       2.400e-01       1.051e-06          0.3046
 132       1.125e-01       2.400e-01       3.147e-06          0.3971
 133       8.250e-02       2.400e-01       3.276e-06          0.5308
 134       5.250e-02       2.400e-01       6.615e-07          0.7783
 135       2.250e-02       2.400e-01       3.319e-07          1.6933
Strip 17
 136       2.325e-01       2.933e-01       6.956e-09          0.0995
 137       2.025e-01       2.933e-01       1.310e-08          0.1625
 138       1.725e-01       2.933e-01       9.197e-08          0.2245
 139       1.425e-01       2.933e-01       1.051e-06          0.2956
 140       1.125e-01       2.933e-01       3.147e-06          0.3863
 141       8.250e-02       2.933e-01       3.276e-06          0.5177
 142       5.250e-02       2.933e-01       6.615e-07          0.7613
 143       2.250e-02       2.933e-01       3.319e-07          1.6613
Strip 18
 144       2.325e-01       3.467e-01       6.956e-09          0.0947
 145       2.025e-01       3.467e-01       1.310e-08          0.1550
 146       1.725e-01       3.467e-01       9.197e-08          0.2146
 147       1.425e-01       3.467e-01       1.051e-06          0.2834
 148       1.125e-01       3.467e-01       3.147e-06          0.3716
 149       8.250e-02       3.467e-01       3.276e-06          0.5001
 150       5.250e-02       3.467e-01       6.615e-07          0.7386
 151       2.250e-02       3.467e-01       3.319e-07          1.6188
Strip 19
 152       2.325e-01       4.000e-01       6.956e-09          0.0884
 153       2.025e-01       4.000e-01       1.310e-08          0.1449
 154       1.725e-01       4.000e-01       9.197e-08          0.2012
 155       1.425e-01       4.000e-01       1.051e-06          0.2669
 156       1.125e-01       4.000e-01       3.147e-06          0.3519
 157       8.250e-02       4.000e-01       3.276e-06          0.4762
 158       5.250e-02       4.000e-01       6.615e-07          0.7079
 159       2.250e-02       4.000e-01       3.319e-07          1.5623
Strip 20
 160       2.325e-01       4.533e-01       6.956e-09          0.0800
 161       2.025e-01       4.533e-01       1.310e-08          0.1315
 162       1.725e-01       4.533e-01       9.197e-08          0.1833
 163       1.425e-01       4.533e-01       1.051e-06          0.2445
 164       1.125e-01       4.533e-01       3.147e-06          0.3247
 165       8.250e-02       4.533e-01       3.276e-06          0.4434
 166       5.250e-02       4.533e-01       6.615e-07          0.6660
 167       2.250e-02       4.533e-01       3.319e-07          1.4861
Strip 21
 168       2.325e-01       5.067e-01       6.956e-09          0.0690
 169       2.025e-01       5.067e-01       1.310e-08          0.1135
 170       1.725e-01       5.067e-01       9.197e-08          0.1589
 171       1.425e-01       5.067e-01       1.051e-06          0.2136
 172       1.125e-01       5.067e-01       3.147e-06          0.2866
 173       8.250e-02       5.067e-01       3.276e-06          0.3968
 174       5.250e-02       5.067e-01       6.615e-07          0.6065
 175       2.250e-02       5.067e-01       3.319e-07          1.3799
Strip 22
 176       2.325e-01       5.600e-01       6.956e-09          0.0546
 177       2.025e-01       5.600e-01       1.310e-08          0.0897
 178       1.725e-01       5.600e-01       9.197e-08          0.1257
 179       1.425e-01       5.600e-01       1.051e-06          0.1701
 180       1.125e-01       5.600e-01       3.147e-06          0.2312
 181       8.250e-02       5.600e-01       3.276e-06          0.3267
 182       5.250e-02       5.600e-01       6.615e-07          0.5155
 183       2.250e-02       5.600e-01       3.319e-07          1.2213
Strip 23
 184       2.325e-01       6.133e-01       6.956e-09          0.0356
 185       2.025e-01       6.133e-01       1.310e-08          0.0574
 186       1.725e-01       6.133e-01       9.197e-08          0.0798
 187       1.425e-01       6.133e-01       1.051e-06          0.1079
 188       1.125e-01       6.133e-01       3.147e-06          0.1476
 189       8.250e-02       6.133e-01       3.276e-06          0.2130
 190       5.250e-02       6.133e-01       6.615e-07          0.3553
 191       2.250e-02       6.133e-01       3.319e-07          0.9416
Strip 24
 192       0.000e+00       0.000e+00       0.000e+00         -2.0822
 193       0.000e+00       0.000e+00       0.000e+00         -3.3608
 194       0.000e+00       0.000e+00       0.000e+00         -4.6710
 195       0.000e+00       0.000e+00       0.000e+00         -6.3104
 196       0.000e+00       0.000e+00       0.000e+00         -8.6328
 197       0.000e+00       0.000e+00       0.000e+00        -12.4601
 198       0.000e+00       0.000e+00       0.000e+00        -20.7868
 199       0.000e+00       0.000e+00       0.000e+00        -55.0855










