XFLR5 v6.02 Beta

NAC642A015 Wing
T1-54.4 m/s-VLM1-x0.000mm
QInf  =   54.400000 m/s
Alpha =   -1.500000
Beta  =    0.000°
Phi   =    0.000°
Ctrl  =   18.000
CL    =   -0.108784
Cy    =    0.000000
Cd    =    0.007132     ICd   =    0.000687     PCd   =    0.006445
Cl   = -2.21982e-18
Cm   =    0.025873
ICn   =   -0.000000     PCn   =   -0.000000 
XCP   =    0.057101     YCP   =    0.000000 
XNP   =    0.000000
Bend. =   -7.909679

NAC642A015 Wing
  y-span        Chord      Ai         Cl        PCd          ICd        CmGeom      CmAirf      XTrtop    XTrBot      XCP       BM
   -0.6133     0.2400     1.109   -0.056342    0.006412    0.000546    0.011382   -0.002706     0.6658    0.6419    0.2020    0.0000
   -0.5600     0.2400     1.002   -0.079504    0.006426    0.000695    0.017348   -0.002531     0.6707    0.6374    0.2182   -0.0697
   -0.5067     0.2400     0.910   -0.093751    0.006436    0.000745    0.021358   -0.002081     0.6736    0.6347    0.2278   -0.2378
   -0.4533     0.2400     0.832   -0.103485    0.006442    0.000752    0.024197   -0.001675     0.6757    0.6328    0.2338   -0.5220
   -0.4000     0.2400     0.769   -0.110471    0.006447    0.000741    0.026260   -0.001358     0.6771    0.6315    0.2377   -0.9342
   -0.3467     0.2400     0.717   -0.115619    0.006450    0.000724    0.027783   -0.001121     0.6782    0.6304    0.2403   -1.4831
   -0.2933     0.2400     0.677   -0.119461    0.006452    0.000706    0.028918   -0.000947     0.6792    0.6296    0.2421   -2.1750
   -0.2400     0.2400     0.645   -0.122324    0.006453    0.000689    0.029760   -0.000820     0.6799    0.6289    0.2433   -3.0148
   -0.1867     0.2400     0.621   -0.124423    0.006453    0.000675    0.030375   -0.000729     0.6804    0.6284    0.2441   -4.0059
   -0.1333     0.2400     0.604   -0.125897    0.006454    0.000664    0.030805   -0.000667     0.6808    0.6281    0.2447   -5.1510
   -0.0800     0.2400     0.593   -0.126835    0.006454    0.000656    0.031079   -0.000628     0.6810    0.6279    0.2451   -6.4519
   -0.0267     0.2400     0.587   -0.127291    0.006455    0.000652    0.031211   -0.000609     0.6811    0.6278    0.2452   -7.9097
    0.0267     0.2400     0.587   -0.127291    0.006455    0.000652    0.031211   -0.000609     0.6811    0.6278    0.2452   -7.9097
    0.0800     0.2400     0.593   -0.126835    0.006454    0.000656    0.031079   -0.000628     0.6810    0.6279    0.2451   -6.4519
    0.1333     0.2400     0.604   -0.125897    0.006454    0.000664    0.030805   -0.000667     0.6808    0.6281    0.2447   -5.1510
    0.1867     0.2400     0.621   -0.124423    0.006453    0.000675    0.030375   -0.000729     0.6804    0.6284    0.2441   -4.0059
    0.2400     0.2400     0.645   -0.122324    0.006453    0.000689    0.029760   -0.000820     0.6799    0.6289    0.2433   -3.0148
    0.2933     0.2400     0.677   -0.119461    0.006452    0.000706    0.028918   -0.000947     0.6792    0.6296    0.2421   -2.1750
    0.3467     0.2400     0.717   -0.115619    0.006450    0.000724    0.027783   -0.001121     0.6782    0.6304    0.2403   -1.4831
    0.4000     0.2400     0.769   -0.110471    0.006447    0.000741    0.026260   -0.001358     0.6771    0.6315    0.2377   -0.9342
    0.4533     0.2400     0.832   -0.103485    0.006442    0.000752    0.024197   -0.001675     0.6757    0.6328    0.2338   -0.5220
    0.5067     0.2400     0.910   -0.093751    0.006436    0.000745    0.021358   -0.002081     0.6736    0.6347    0.2278   -0.2378
    0.5600     0.2400     1.002   -0.079504    0.006426    0.000695    0.017348   -0.002531     0.6707    0.6374    0.2182   -0.0697
    0.6133     0.2400     1.109   -0.056342    0.006412    0.000546    0.011382   -0.002706     0.6658    0.6419    0.2020    0.0000


Wing Cp Coefficients
 Panel     CtrlPt.x        CtrlPt.y        CtrlPt.z             Cp
NAC642A015 WingCp Coefficients
Strip 1
   8       2.325e-01      -5.600e-01       6.956e-09         -0.0127
   9       2.025e-01      -5.600e-01       1.310e-08         -0.0210
  10       1.725e-01      -5.600e-01       9.197e-08         -0.0294
  11       1.425e-01      -5.600e-01       1.051e-06         -0.0393
  12       1.125e-01      -5.600e-01       3.147e-06         -0.0532
  13       8.250e-02      -5.600e-01       3.276e-06         -0.0762
  14       5.250e-02      -5.600e-01       6.615e-07         -0.1200
  15       2.250e-02      -5.600e-01       3.319e-07         -0.2843
Strip 2
  16       2.325e-01      -5.067e-01       6.956e-09         -0.0161
  17       2.025e-01      -5.067e-01       1.310e-08         -0.0265
  18       1.725e-01      -5.067e-01       9.197e-08         -0.0371
  19       1.425e-01      -5.067e-01       1.051e-06         -0.0494
  20       1.125e-01      -5.067e-01       3.147e-06         -0.0661
  21       8.250e-02      -5.067e-01       3.276e-06         -0.0925
  22       5.250e-02      -5.067e-01       6.615e-07         -0.1411
  23       2.250e-02      -5.067e-01       3.319e-07         -0.3212
Strip 3
  24       2.325e-01      -4.533e-01       6.956e-09         -0.0186
  25       2.025e-01      -4.533e-01       1.310e-08         -0.0307
  26       1.725e-01      -4.533e-01       9.197e-08         -0.0428
  27       1.425e-01      -4.533e-01       1.051e-06         -0.0566
  28       1.125e-01      -4.533e-01       3.147e-06         -0.0749
  29       8.250e-02      -4.533e-01       3.276e-06         -0.1034
  30       5.250e-02      -4.533e-01       6.615e-07         -0.1550
  31       2.250e-02      -4.533e-01       3.319e-07         -0.3459
Strip 4
  32       2.325e-01      -4.000e-01       6.956e-09         -0.0206
  33       2.025e-01      -4.000e-01       1.310e-08         -0.0338
  34       1.725e-01      -4.000e-01       9.197e-08         -0.0470
  35       1.425e-01      -4.000e-01       1.051e-06         -0.0618
  36       1.125e-01      -4.000e-01       3.147e-06         -0.0813
  37       8.250e-02      -4.000e-01       3.276e-06         -0.1110
  38       5.250e-02      -4.000e-01       6.615e-07         -0.1647
  39       2.250e-02      -4.000e-01       3.319e-07         -0.3636
Strip 5
  40       2.325e-01      -3.467e-01       6.956e-09         -0.0221
  41       2.025e-01      -3.467e-01       1.310e-08         -0.0362
  42       1.725e-01      -3.467e-01       9.197e-08         -0.0501
  43       1.425e-01      -3.467e-01       1.051e-06         -0.0657
  44       1.125e-01      -3.467e-01       3.147e-06         -0.0859
  45       8.250e-02      -3.467e-01       3.276e-06         -0.1165
  46       5.250e-02      -3.467e-01       6.615e-07         -0.1719
  47       2.250e-02      -3.467e-01       3.319e-07         -0.3767
Strip 6
  48       2.325e-01      -2.933e-01       6.956e-09         -0.0232
  49       2.025e-01      -2.933e-01       1.310e-08         -0.0379
  50       1.725e-01      -2.933e-01       9.197e-08         -0.0524
  51       1.425e-01      -2.933e-01       1.051e-06         -0.0685
  52       1.125e-01      -2.933e-01       3.147e-06         -0.0893
  53       8.250e-02      -2.933e-01       3.276e-06         -0.1207
  54       5.250e-02      -2.933e-01       6.615e-07         -0.1772
  55       2.250e-02      -2.933e-01       3.319e-07         -0.3866
Strip 7
  56       2.325e-01      -2.400e-01       6.956e-09         -0.0240
  57       2.025e-01      -2.400e-01       1.310e-08         -0.0392
  58       1.725e-01      -2.400e-01       9.197e-08         -0.0541
  59       1.425e-01      -2.400e-01       1.051e-06         -0.0706
  60       1.125e-01      -2.400e-01       3.147e-06         -0.0918
  61       8.250e-02      -2.400e-01       3.276e-06         -0.1237
  62       5.250e-02      -2.400e-01       6.615e-07         -0.1811
  63       2.250e-02      -2.400e-01       3.319e-07         -0.3940
Strip 8
  64       2.325e-01      -1.867e-01       6.956e-09         -0.0246
  65       2.025e-01      -1.867e-01       1.310e-08         -0.0402
  66       1.725e-01      -1.867e-01       9.197e-08         -0.0553
  67       1.425e-01      -1.867e-01       1.051e-06         -0.0721
  68       1.125e-01      -1.867e-01       3.147e-06         -0.0936
  69       8.250e-02      -1.867e-01       3.276e-06         -0.1259
  70       5.250e-02      -1.867e-01       6.615e-07         -0.1840
  71       2.250e-02      -1.867e-01       3.319e-07         -0.3995
Strip 9
  72       2.325e-01      -1.333e-01       6.956e-09         -0.0250
  73       2.025e-01      -1.333e-01       1.310e-08         -0.0408
  74       1.725e-01      -1.333e-01       9.197e-08         -0.0562
  75       1.425e-01      -1.333e-01       1.051e-06         -0.0732
  76       1.125e-01      -1.333e-01       3.147e-06         -0.0949
  77       8.250e-02      -1.333e-01       3.276e-06         -0.1275
  78       5.250e-02      -1.333e-01       6.615e-07         -0.1860
  79       2.250e-02      -1.333e-01       3.319e-07         -0.4034
Strip 10
  80       2.325e-01      -8.000e-02       6.956e-09         -0.0253
  81       2.025e-01      -8.000e-02       1.310e-08         -0.0413
  82       1.725e-01      -8.000e-02       9.197e-08         -0.0568
  83       1.425e-01      -8.000e-02       1.051e-06         -0.0739
  84       1.125e-01      -8.000e-02       3.147e-06         -0.0957
  85       8.250e-02      -8.000e-02       3.276e-06         -0.1285
  86       5.250e-02      -8.000e-02       6.615e-07         -0.1873
  87       2.250e-02      -8.000e-02       3.319e-07         -0.4059
Strip 11
  88       2.325e-01      -2.667e-02       6.956e-09         -0.0254
  89       2.025e-01      -2.667e-02       1.310e-08         -0.0415
  90       1.725e-01      -2.667e-02       9.197e-08         -0.0570
  91       1.425e-01      -2.667e-02       1.051e-06         -0.0742
  92       1.125e-01      -2.667e-02       3.147e-06         -0.0961
  93       8.250e-02      -2.667e-02       3.276e-06         -0.1289
  94       5.250e-02      -2.667e-02       6.615e-07         -0.1880
  95       2.250e-02      -2.667e-02       3.319e-07         -0.4071
Strip 12
  96       2.325e-01       2.667e-02       6.956e-09         -0.0254
  97       2.025e-01       2.667e-02       1.310e-08         -0.0415
  98       1.725e-01       2.667e-02       9.197e-08         -0.0570
  99       1.425e-01       2.667e-02       1.051e-06         -0.0742
 100       1.125e-01       2.667e-02       3.147e-06         -0.0961
 101       8.250e-02       2.667e-02       3.276e-06         -0.1289
 102       5.250e-02       2.667e-02       6.615e-07         -0.1880
 103       2.250e-02       2.667e-02       3.319e-07         -0.4071
Strip 13
 104       2.325e-01       8.000e-02       6.956e-09         -0.0253
 105       2.025e-01       8.000e-02       1.310e-08         -0.0413
 106       1.725e-01       8.000e-02       9.197e-08         -0.0568
 107       1.425e-01       8.000e-02       1.051e-06         -0.0739
 108       1.125e-01       8.000e-02       3.147e-06         -0.0957
 109       8.250e-02       8.000e-02       3.276e-06         -0.1285
 110       5.250e-02       8.000e-02       6.615e-07         -0.1873
 111       2.250e-02       8.000e-02       3.319e-07         -0.4059
Strip 14
 112       2.325e-01       1.333e-01       6.956e-09         -0.0250
 113       2.025e-01       1.333e-01       1.310e-08         -0.0408
 114       1.725e-01       1.333e-01       9.197e-08         -0.0562
 115       1.425e-01       1.333e-01       1.051e-06         -0.0732
 116       1.125e-01       1.333e-01       3.147e-06         -0.0949
 117       8.250e-02       1.333e-01       3.276e-06         -0.1275
 118       5.250e-02       1.333e-01       6.615e-07         -0.1860
 119       2.250e-02       1.333e-01       3.319e-07         -0.4034
Strip 15
 120       2.325e-01       1.867e-01       6.956e-09         -0.0246
 121       2.025e-01       1.867e-01       1.310e-08         -0.0402
 122       1.725e-01       1.867e-01       9.197e-08         -0.0553
 123       1.425e-01       1.867e-01       1.051e-06         -0.0721
 124       1.125e-01       1.867e-01       3.147e-06         -0.0936
 125       8.250e-02       1.867e-01       3.276e-06         -0.1259
 126       5.250e-02       1.867e-01       6.615e-07         -0.1840
 127       2.250e-02       1.867e-01       3.319e-07         -0.3995
Strip 16
 128       2.325e-01       2.400e-01       6.956e-09         -0.0240
 129       2.025e-01       2.400e-01       1.310e-08         -0.0392
 130       1.725e-01       2.400e-01       9.197e-08         -0.0541
 131       1.425e-01       2.400e-01       1.051e-06         -0.0706
 132       1.125e-01       2.400e-01       3.147e-06         -0.0918
 133       8.250e-02       2.400e-01       3.276e-06         -0.1237
 134       5.250e-02       2.400e-01       6.615e-07         -0.1811
 135       2.250e-02       2.400e-01       3.319e-07         -0.3940
Strip 17
 136       2.325e-01       2.933e-01       6.956e-09         -0.0232
 137       2.025e-01       2.933e-01       1.310e-08         -0.0379
 138       1.725e-01       2.933e-01       9.197e-08         -0.0524
 139       1.425e-01       2.933e-01       1.051e-06         -0.0685
 140       1.125e-01       2.933e-01       3.147e-06         -0.0893
 141       8.250e-02       2.933e-01       3.276e-06         -0.1207
 142       5.250e-02       2.933e-01       6.615e-07         -0.1772
 143       2.250e-02       2.933e-01       3.319e-07         -0.3866
Strip 18
 144       2.325e-01       3.467e-01       6.956e-09         -0.0221
 145       2.025e-01       3.467e-01       1.310e-08         -0.0362
 146       1.725e-01       3.467e-01       9.197e-08         -0.0501
 147       1.425e-01       3.467e-01       1.051e-06         -0.0657
 148       1.125e-01       3.467e-01       3.147e-06         -0.0859
 149       8.250e-02       3.467e-01       3.276e-06         -0.1165
 150       5.250e-02       3.467e-01       6.615e-07         -0.1719
 151       2.250e-02       3.467e-01       3.319e-07         -0.3767
Strip 19
 152       2.325e-01       4.000e-01       6.956e-09         -0.0206
 153       2.025e-01       4.000e-01       1.310e-08         -0.0338
 154       1.725e-01       4.000e-01       9.197e-08         -0.0470
 155       1.425e-01       4.000e-01       1.051e-06         -0.0618
 156       1.125e-01       4.000e-01       3.147e-06         -0.0813
 157       8.250e-02       4.000e-01       3.276e-06         -0.1110
 158       5.250e-02       4.000e-01       6.615e-07         -0.1647
 159       2.250e-02       4.000e-01       3.319e-07         -0.3636
Strip 20
 160       2.325e-01       4.533e-01       6.956e-09         -0.0186
 161       2.025e-01       4.533e-01       1.310e-08         -0.0307
 162       1.725e-01       4.533e-01       9.197e-08         -0.0428
 163       1.425e-01       4.533e-01       1.051e-06         -0.0566
 164       1.125e-01       4.533e-01       3.147e-06         -0.0749
 165       8.250e-02       4.533e-01       3.276e-06         -0.1034
 166       5.250e-02       4.533e-01       6.615e-07         -0.1550
 167       2.250e-02       4.533e-01       3.319e-07         -0.3459
Strip 21
 168       2.325e-01       5.067e-01       6.956e-09         -0.0161
 169       2.025e-01       5.067e-01       1.310e-08         -0.0265
 170       1.725e-01       5.067e-01       9.197e-08         -0.0371
 171       1.425e-01       5.067e-01       1.051e-06         -0.0494
 172       1.125e-01       5.067e-01       3.147e-06         -0.0661
 173       8.250e-02       5.067e-01       3.276e-06         -0.0925
 174       5.250e-02       5.067e-01       6.615e-07         -0.1411
 175       2.250e-02       5.067e-01       3.319e-07         -0.3212
Strip 22
 176       2.325e-01       5.600e-01       6.956e-09         -0.0127
 177       2.025e-01       5.600e-01       1.310e-08         -0.0210
 178       1.725e-01       5.600e-01       9.197e-08         -0.0294
 179       1.425e-01       5.600e-01       1.051e-06         -0.0393
 180       1.125e-01       5.600e-01       3.147e-06         -0.0532
 181       8.250e-02       5.600e-01       3.276e-06         -0.0762
 182       5.250e-02       5.600e-01       6.615e-07         -0.1200
 183       2.250e-02       5.600e-01       3.319e-07         -0.2843
Strip 23
 184       2.325e-01       6.133e-01       6.956e-09         -0.0083
 185       2.025e-01       6.133e-01       1.310e-08         -0.0135
 186       1.725e-01       6.133e-01       9.197e-08         -0.0187
 187       1.425e-01       6.133e-01       1.051e-06         -0.0249
 188       1.125e-01       6.133e-01       3.147e-06         -0.0338
 189       8.250e-02       6.133e-01       3.276e-06         -0.0498
 190       5.250e-02       6.133e-01       6.615e-07         -0.0827
 191       2.250e-02       6.133e-01       3.319e-07         -0.2192
Strip 24
 192       0.000e+00       0.000e+00       0.000e+00          0.3012
 193       0.000e+00       0.000e+00       0.000e+00          0.4899
 194       0.000e+00       0.000e+00       0.000e+00          0.6825
 195       0.000e+00       0.000e+00       0.000e+00          0.8994
 196       0.000e+00       0.000e+00       0.000e+00          1.2176
 197       0.000e+00       0.000e+00       0.000e+00          1.8091
 198       0.000e+00       0.000e+00       0.000e+00          3.0009
 199       0.000e+00       0.000e+00       0.000e+00          7.9514










