XFLR5 v6.02 Beta

NAC642A015 Wing
T1-54.4 m/s-VLM1-x0.000mm
QInf  =   54.400000 m/s
Alpha =    2.000000
Beta  =    0.000°
Phi   =    0.000°
Ctrl  =   18.000
CL    =    0.145049
Cy    =    0.000000
Cd    =    0.007678     ICd   =    0.001222     PCd   =    0.006456
Cl   = 9.67333e-19
Cm   =  -0.0345119
ICn   =   -0.000000     PCn   =   -0.000000 
XCP   =    0.057138     YCP   =    0.000000 
XNP   =    0.000000
Bend. =   10.546443

NAC642A015 Wing
  y-span        Chord      Ai         Cl        PCd          ICd        CmGeom      CmAirf      XTrtop    XTrBot      XCP       BM
   -0.6133     0.2400    -1.478    0.075113    0.006429    0.000970   -0.015184    0.003599     0.6381    0.6699    0.2021    0.0000
   -0.5600     0.2400    -1.336    0.105997    0.006471    0.001237   -0.023143    0.003362     0.6316    0.6766    0.2183    0.0930
   -0.5067     0.2400    -1.213    0.124997    0.006477    0.001324   -0.028492    0.002762     0.6276    0.6809    0.2279    0.3171
   -0.4533     0.2400    -1.110    0.137980    0.006469    0.001337   -0.032278    0.002220     0.6249    0.6840    0.2339    0.6960
   -0.4000     0.2400    -1.025    0.147297    0.006463    0.001318   -0.035028    0.001797     0.6230    0.6862    0.2378    1.2456
   -0.3467     0.2400    -0.957    0.154165    0.006459    0.001288   -0.037060    0.001480     0.6216    0.6878    0.2404    1.9775
   -0.2933     0.2400    -0.902    0.159289    0.006455    0.001255   -0.038572    0.001248     0.6205    0.6890    0.2422    2.9001
   -0.2400     0.2400    -0.860    0.163109    0.006453    0.001225   -0.039696    0.001078     0.6197    0.6899    0.2434    4.0198
   -0.1867     0.2400    -0.828    0.165909    0.006451    0.001200   -0.040516    0.000957     0.6192    0.6906    0.2442    5.3413
   -0.1333     0.2400    -0.805    0.167875    0.006450    0.001180   -0.041090    0.000874     0.6188    0.6910    0.2448    6.8682
   -0.0800     0.2400    -0.790    0.169126    0.006449    0.001167   -0.041454    0.000822     0.6185    0.6913    0.2451    8.6027
   -0.0267     0.2400    -0.783    0.169735    0.006449    0.001160   -0.041631    0.000797     0.6184    0.6915    0.2453   10.5464
    0.0267     0.2400    -0.783    0.169735    0.006449    0.001160   -0.041631    0.000797     0.6184    0.6915    0.2453   10.5464
    0.0800     0.2400    -0.790    0.169126    0.006449    0.001167   -0.041454    0.000822     0.6185    0.6913    0.2451    8.6027
    0.1333     0.2400    -0.805    0.167875    0.006450    0.001180   -0.041090    0.000874     0.6188    0.6910    0.2448    6.8682
    0.1867     0.2400    -0.828    0.165909    0.006451    0.001200   -0.040516    0.000957     0.6192    0.6906    0.2442    5.3413
    0.2400     0.2400    -0.860    0.163109    0.006453    0.001225   -0.039696    0.001078     0.6197    0.6899    0.2434    4.0198
    0.2933     0.2400    -0.902    0.159289    0.006455    0.001255   -0.038572    0.001248     0.6205    0.6890    0.2422    2.9001
    0.3467     0.2400    -0.957    0.154165    0.006459    0.001288   -0.037060    0.001480     0.6216    0.6878    0.2404    1.9775
    0.4000     0.2400    -1.025    0.147297    0.006463    0.001318   -0.035028    0.001797     0.6230    0.6862    0.2378    1.2456
    0.4533     0.2400    -1.110    0.137980    0.006469    0.001337   -0.032278    0.002220     0.6249    0.6840    0.2339    0.6960
    0.5067     0.2400    -1.213    0.124997    0.006477    0.001324   -0.028492    0.002762     0.6276    0.6809    0.2279    0.3171
    0.5600     0.2400    -1.336    0.105997    0.006471    0.001237   -0.023143    0.003362     0.6316    0.6766    0.2183    0.0930
    0.6133     0.2400    -1.478    0.075113    0.006429    0.000970   -0.015184    0.003599     0.6381    0.6699    0.2021    0.0000


Wing Cp Coefficients
 Panel     CtrlPt.x        CtrlPt.y        CtrlPt.z             Cp
NAC642A015 WingCp Coefficients
Strip 1
   8       2.325e-01      -5.600e-01       6.956e-09          0.0169
   9       2.025e-01      -5.600e-01       1.310e-08          0.0277
  10       1.725e-01      -5.600e-01       9.197e-08          0.0389
  11       1.425e-01      -5.600e-01       1.051e-06          0.0529
  12       1.125e-01      -5.600e-01       3.147e-06          0.0720
  13       8.250e-02      -5.600e-01       3.276e-06          0.1012
  14       5.250e-02      -5.600e-01       6.615e-07          0.1598
  15       2.250e-02      -5.600e-01       3.319e-07          0.3787
Strip 2
  16       2.325e-01      -5.067e-01       6.956e-09          0.0214
  17       2.025e-01      -5.067e-01       1.310e-08          0.0351
  18       1.725e-01      -5.067e-01       9.197e-08          0.0492
  19       1.425e-01      -5.067e-01       1.051e-06          0.0664
  20       1.125e-01      -5.067e-01       3.147e-06          0.0892
  21       8.250e-02      -5.067e-01       3.276e-06          0.1229
  22       5.250e-02      -5.067e-01       6.615e-07          0.1880
  23       2.250e-02      -5.067e-01       3.319e-07          0.4278
Strip 3
  24       2.325e-01      -4.533e-01       6.956e-09          0.0248
  25       2.025e-01      -4.533e-01       1.310e-08          0.0407
  26       1.725e-01      -4.533e-01       9.197e-08          0.0568
  27       1.425e-01      -4.533e-01       1.051e-06          0.0760
  28       1.125e-01      -4.533e-01       3.147e-06          0.1010
  29       8.250e-02      -4.533e-01       3.276e-06          0.1374
  30       5.250e-02      -4.533e-01       6.615e-07          0.2065
  31       2.250e-02      -4.533e-01       3.319e-07          0.4608
Strip 4
  32       2.325e-01      -4.000e-01       6.956e-09          0.0274
  33       2.025e-01      -4.000e-01       1.310e-08          0.0449
  34       1.725e-01      -4.000e-01       9.197e-08          0.0623
  35       1.425e-01      -4.000e-01       1.051e-06          0.0829
  36       1.125e-01      -4.000e-01       3.147e-06          0.1094
  37       8.250e-02      -4.000e-01       3.276e-06          0.1476
  38       5.250e-02      -4.000e-01       6.615e-07          0.2195
  39       2.250e-02      -4.000e-01       3.319e-07          0.4844
Strip 5
  40       2.325e-01      -3.467e-01       6.956e-09          0.0294
  41       2.025e-01      -3.467e-01       1.310e-08          0.0480
  42       1.725e-01      -3.467e-01       9.197e-08          0.0664
  43       1.425e-01      -3.467e-01       1.051e-06          0.0880
  44       1.125e-01      -3.467e-01       3.147e-06          0.1156
  45       8.250e-02      -3.467e-01       3.276e-06          0.1550
  46       5.250e-02      -3.467e-01       6.615e-07          0.2290
  47       2.250e-02      -3.467e-01       3.319e-07          0.5019
Strip 6
  48       2.325e-01      -2.933e-01       6.956e-09          0.0308
  49       2.025e-01      -2.933e-01       1.310e-08          0.0503
  50       1.725e-01      -2.933e-01       9.197e-08          0.0695
  51       1.425e-01      -2.933e-01       1.051e-06          0.0918
  52       1.125e-01      -2.933e-01       3.147e-06          0.1201
  53       8.250e-02      -2.933e-01       3.276e-06          0.1604
  54       5.250e-02      -2.933e-01       6.615e-07          0.2361
  55       2.250e-02      -2.933e-01       3.319e-07          0.5151
Strip 7
  56       2.325e-01      -2.400e-01       6.956e-09          0.0320
  57       2.025e-01      -2.400e-01       1.310e-08          0.0521
  58       1.725e-01      -2.400e-01       9.197e-08          0.0718
  59       1.425e-01      -2.400e-01       1.051e-06          0.0946
  60       1.125e-01      -2.400e-01       3.147e-06          0.1235
  61       8.250e-02      -2.400e-01       3.276e-06          0.1645
  62       5.250e-02      -2.400e-01       6.615e-07          0.2413
  63       2.250e-02      -2.400e-01       3.319e-07          0.5250
Strip 8
  64       2.325e-01      -1.867e-01       6.956e-09          0.0328
  65       2.025e-01      -1.867e-01       1.310e-08          0.0534
  66       1.725e-01      -1.867e-01       9.197e-08          0.0735
  67       1.425e-01      -1.867e-01       1.051e-06          0.0966
  68       1.125e-01      -1.867e-01       3.147e-06          0.1259
  69       8.250e-02      -1.867e-01       3.276e-06          0.1674
  70       5.250e-02      -1.867e-01       6.615e-07          0.2452
  71       2.250e-02      -1.867e-01       3.319e-07          0.5323
Strip 9
  72       2.325e-01      -1.333e-01       6.956e-09          0.0333
  73       2.025e-01      -1.333e-01       1.310e-08          0.0542
  74       1.725e-01      -1.333e-01       9.197e-08          0.0746
  75       1.425e-01      -1.333e-01       1.051e-06          0.0981
  76       1.125e-01      -1.333e-01       3.147e-06          0.1276
  77       8.250e-02      -1.333e-01       3.276e-06          0.1695
  78       5.250e-02      -1.333e-01       6.615e-07          0.2479
  79       2.250e-02      -1.333e-01       3.319e-07          0.5375
Strip 10
  80       2.325e-01      -8.000e-02       6.956e-09          0.0337
  81       2.025e-01      -8.000e-02       1.310e-08          0.0548
  82       1.725e-01      -8.000e-02       9.197e-08          0.0754
  83       1.425e-01      -8.000e-02       1.051e-06          0.0990
  84       1.125e-01      -8.000e-02       3.147e-06          0.1287
  85       8.250e-02      -8.000e-02       3.276e-06          0.1708
  86       5.250e-02      -8.000e-02       6.615e-07          0.2496
  87       2.250e-02      -8.000e-02       3.319e-07          0.5408
Strip 11
  88       2.325e-01      -2.667e-02       6.956e-09          0.0339
  89       2.025e-01      -2.667e-02       1.310e-08          0.0551
  90       1.725e-01      -2.667e-02       9.197e-08          0.0757
  91       1.425e-01      -2.667e-02       1.051e-06          0.0994
  92       1.125e-01      -2.667e-02       3.147e-06          0.1292
  93       8.250e-02      -2.667e-02       3.276e-06          0.1715
  94       5.250e-02      -2.667e-02       6.615e-07          0.2505
  95       2.250e-02      -2.667e-02       3.319e-07          0.5424
Strip 12
  96       2.325e-01       2.667e-02       6.956e-09          0.0339
  97       2.025e-01       2.667e-02       1.310e-08          0.0551
  98       1.725e-01       2.667e-02       9.197e-08          0.0757
  99       1.425e-01       2.667e-02       1.051e-06          0.0994
 100       1.125e-01       2.667e-02       3.147e-06          0.1292
 101       8.250e-02       2.667e-02       3.276e-06          0.1715
 102       5.250e-02       2.667e-02       6.615e-07          0.2505
 103       2.250e-02       2.667e-02       3.319e-07          0.5424
Strip 13
 104       2.325e-01       8.000e-02       6.956e-09          0.0337
 105       2.025e-01       8.000e-02       1.310e-08          0.0548
 106       1.725e-01       8.000e-02       9.197e-08          0.0754
 107       1.425e-01       8.000e-02       1.051e-06          0.0990
 108       1.125e-01       8.000e-02       3.147e-06          0.1287
 109       8.250e-02       8.000e-02       3.276e-06          0.1708
 110       5.250e-02       8.000e-02       6.615e-07          0.2496
 111       2.250e-02       8.000e-02       3.319e-07          0.5408
Strip 14
 112       2.325e-01       1.333e-01       6.956e-09          0.0333
 113       2.025e-01       1.333e-01       1.310e-08          0.0542
 114       1.725e-01       1.333e-01       9.197e-08          0.0746
 115       1.425e-01       1.333e-01       1.051e-06          0.0981
 116       1.125e-01       1.333e-01       3.147e-06          0.1276
 117       8.250e-02       1.333e-01       3.276e-06          0.1695
 118       5.250e-02       1.333e-01       6.615e-07          0.2479
 119       2.250e-02       1.333e-01       3.319e-07          0.5375
Strip 15
 120       2.325e-01       1.867e-01       6.956e-09          0.0328
 121       2.025e-01       1.867e-01       1.310e-08          0.0534
 122       1.725e-01       1.867e-01       9.197e-08          0.0735
 123       1.425e-01       1.867e-01       1.051e-06          0.0966
 124       1.125e-01       1.867e-01       3.147e-06          0.1259
 125       8.250e-02       1.867e-01       3.276e-06          0.1674
 126       5.250e-02       1.867e-01       6.615e-07          0.2452
 127       2.250e-02       1.867e-01       3.319e-07          0.5323
Strip 16
 128       2.325e-01       2.400e-01       6.956e-09          0.0320
 129       2.025e-01       2.400e-01       1.310e-08          0.0521
 130       1.725e-01       2.400e-01       9.197e-08          0.0718
 131       1.425e-01       2.400e-01       1.051e-06          0.0946
 132       1.125e-01       2.400e-01       3.147e-06          0.1235
 133       8.250e-02       2.400e-01       3.276e-06          0.1645
 134       5.250e-02       2.400e-01       6.615e-07          0.2413
 135       2.250e-02       2.400e-01       3.319e-07          0.5250
Strip 17
 136       2.325e-01       2.933e-01       6.956e-09          0.0308
 137       2.025e-01       2.933e-01       1.310e-08          0.0503
 138       1.725e-01       2.933e-01       9.197e-08          0.0695
 139       1.425e-01       2.933e-01       1.051e-06          0.0918
 140       1.125e-01       2.933e-01       3.147e-06          0.1201
 141       8.250e-02       2.933e-01       3.276e-06          0.1604
 142       5.250e-02       2.933e-01       6.615e-07          0.2361
 143       2.250e-02       2.933e-01       3.319e-07          0.5151
Strip 18
 144       2.325e-01       3.467e-01       6.956e-09          0.0294
 145       2.025e-01       3.467e-01       1.310e-08          0.0480
 146       1.725e-01       3.467e-01       9.197e-08          0.0664
 147       1.425e-01       3.467e-01       1.051e-06          0.0880
 148       1.125e-01       3.467e-01       3.147e-06          0.1156
 149       8.250e-02       3.467e-01       3.276e-06          0.1550
 150       5.250e-02       3.467e-01       6.615e-07          0.2290
 151       2.250e-02       3.467e-01       3.319e-07          0.5019
Strip 19
 152       2.325e-01       4.000e-01       6.956e-09          0.0274
 153       2.025e-01       4.000e-01       1.310e-08          0.0449
 154       1.725e-01       4.000e-01       9.197e-08          0.0623
 155       1.425e-01       4.000e-01       1.051e-06          0.0829
 156       1.125e-01       4.000e-01       3.147e-06          0.1094
 157       8.250e-02       4.000e-01       3.276e-06          0.1476
 158       5.250e-02       4.000e-01       6.615e-07          0.2195
 159       2.250e-02       4.000e-01       3.319e-07          0.4844
Strip 20
 160       2.325e-01       4.533e-01       6.956e-09          0.0248
 161       2.025e-01       4.533e-01       1.310e-08          0.0407
 162       1.725e-01       4.533e-01       9.197e-08          0.0568
 163       1.425e-01       4.533e-01       1.051e-06          0.0760
 164       1.125e-01       4.533e-01       3.147e-06          0.1010
 165       8.250e-02       4.533e-01       3.276e-06          0.1374
 166       5.250e-02       4.533e-01       6.615e-07          0.2065
 167       2.250e-02       4.533e-01       3.319e-07          0.4608
Strip 21
 168       2.325e-01       5.067e-01       6.956e-09          0.0214
 169       2.025e-01       5.067e-01       1.310e-08          0.0351
 170       1.725e-01       5.067e-01       9.197e-08          0.0492
 171       1.425e-01       5.067e-01       1.051e-06          0.0664
 172       1.125e-01       5.067e-01       3.147e-06          0.0892
 173       8.250e-02       5.067e-01       3.276e-06          0.1229
 174       5.250e-02       5.067e-01       6.615e-07          0.1880
 175       2.250e-02       5.067e-01       3.319e-07          0.4278
Strip 22
 176       2.325e-01       5.600e-01       6.956e-09          0.0169
 177       2.025e-01       5.600e-01       1.310e-08          0.0277
 178       1.725e-01       5.600e-01       9.197e-08          0.0389
 179       1.425e-01       5.600e-01       1.051e-06          0.0529
 180       1.125e-01       5.600e-01       3.147e-06          0.0720
 181       8.250e-02       5.600e-01       3.276e-06          0.1012
 182       5.250e-02       5.600e-01       6.615e-07          0.1598
 183       2.250e-02       5.600e-01       3.319e-07          0.3787
Strip 23
 184       2.325e-01       6.133e-01       6.956e-09          0.0110
 185       2.025e-01       6.133e-01       1.310e-08          0.0178
 186       1.725e-01       6.133e-01       9.197e-08          0.0247
 187       1.425e-01       6.133e-01       1.051e-06          0.0336
 188       1.125e-01       6.133e-01       3.147e-06          0.0461
 189       8.250e-02       6.133e-01       3.276e-06          0.0659
 190       5.250e-02       6.133e-01       6.615e-07          0.1102
 191       2.250e-02       6.133e-01       3.319e-07          0.2919
Strip 24
 192       0.000e+00       0.000e+00       0.000e+00         -0.7496
 193       0.000e+00       0.000e+00       0.000e+00         -1.2079
 194       0.000e+00       0.000e+00       0.000e+00         -1.6779
 195       0.000e+00       0.000e+00       0.000e+00         -2.2796
 196       0.000e+00       0.000e+00       0.000e+00         -3.1257
 197       0.000e+00       0.000e+00       0.000e+00         -4.4823
 198       0.000e+00       0.000e+00       0.000e+00         -7.4875
 199       0.000e+00       0.000e+00       0.000e+00        -19.8426










