XFLR5 v6.02 Beta

NAC642A015 Wing
T1-54.4 m/s-VLM1-x0.000mm
QInf  =   54.400000 m/s
Alpha =    1.000000
Beta  =    0.000°
Phi   =    0.000°
Ctrl  =   18.000
CL    =    0.072579
Cy    =    0.000000
Cd    =    0.006736     ICd   =    0.000306     PCd   =    0.006430
Cl   = 9.44445e-20
Cm   =  -0.0172722
ICn   =    0.000000     PCn   =    0.000000 
XCP   =    0.057123     YCP   =    0.000000 
XNP   =    0.000000
Bend. =    5.277283

NAC642A015 Wing
  y-span        Chord      Ai         Cl        PCd          ICd        CmGeom      CmAirf      XTrtop    XTrBot      XCP       BM
   -0.6133     0.2400    -0.740    0.037593    0.006420    0.000243   -0.007600    0.001799     0.6457    0.6618    0.2021    0.0000
   -0.5600     0.2400    -0.668    0.053047    0.006409    0.000310   -0.011583    0.001680     0.6427    0.6652    0.2183    0.0465
   -0.5067     0.2400    -0.607    0.062553    0.006412    0.000331   -0.014260    0.001379     0.6408    0.6672    0.2280    0.1587
   -0.4533     0.2400    -0.555    0.069047    0.006421    0.000335   -0.016154    0.001108     0.6394    0.6686    0.2340    0.3483
   -0.4000     0.2400    -0.513    0.073706    0.006427    0.000330   -0.017531    0.000896     0.6384    0.6696    0.2378    0.6233
   -0.3467     0.2400    -0.479    0.077140    0.006432    0.000322   -0.018547    0.000738     0.6377    0.6704    0.2404    0.9895
   -0.2933     0.2400    -0.452    0.079702    0.006436    0.000314   -0.019304    0.000621     0.6371    0.6709    0.2422    1.4512
   -0.2400     0.2400    -0.430    0.081612    0.006438    0.000307   -0.019866    0.000536     0.6367    0.6714    0.2434    2.0115
   -0.1867     0.2400    -0.414    0.083012    0.006440    0.000300   -0.020277    0.000476     0.6364    0.6717    0.2443    2.6727
   -0.1333     0.2400    -0.403    0.083995    0.006441    0.000295   -0.020564    0.000434     0.6362    0.6719    0.2448    3.4367
   -0.0800     0.2400    -0.395    0.084620    0.006442    0.000292   -0.020746    0.000408     0.6361    0.6720    0.2452    4.3047
   -0.0267     0.2400    -0.392    0.084925    0.006443    0.000290   -0.020835    0.000396     0.6360    0.6721    0.2453    5.2773
    0.0267     0.2400    -0.392    0.084925    0.006443    0.000290   -0.020835    0.000396     0.6360    0.6721    0.2453    5.2773
    0.0800     0.2400    -0.395    0.084620    0.006442    0.000292   -0.020746    0.000408     0.6361    0.6720    0.2452    4.3047
    0.1333     0.2400    -0.403    0.083995    0.006441    0.000295   -0.020564    0.000434     0.6362    0.6719    0.2448    3.4367
    0.1867     0.2400    -0.414    0.083012    0.006440    0.000300   -0.020277    0.000476     0.6364    0.6717    0.2443    2.6727
    0.2400     0.2400    -0.430    0.081612    0.006438    0.000307   -0.019866    0.000536     0.6367    0.6714    0.2434    2.0115
    0.2933     0.2400    -0.452    0.079702    0.006436    0.000314   -0.019304    0.000621     0.6371    0.6709    0.2422    1.4512
    0.3467     0.2400    -0.479    0.077140    0.006432    0.000322   -0.018547    0.000738     0.6377    0.6704    0.2404    0.9895
    0.4000     0.2400    -0.513    0.073706    0.006427    0.000330   -0.017531    0.000896     0.6384    0.6696    0.2378    0.6233
    0.4533     0.2400    -0.555    0.069047    0.006421    0.000335   -0.016154    0.001108     0.6394    0.6686    0.2340    0.3483
    0.5067     0.2400    -0.607    0.062553    0.006412    0.000331   -0.014260    0.001379     0.6408    0.6672    0.2280    0.1587
    0.5600     0.2400    -0.668    0.053047    0.006409    0.000310   -0.011583    0.001680     0.6427    0.6652    0.2183    0.0465
    0.6133     0.2400    -0.740    0.037593    0.006420    0.000243   -0.007600    0.001799     0.6457    0.6618    0.2021    0.0000


Wing Cp Coefficients
 Panel     CtrlPt.x        CtrlPt.y        CtrlPt.z             Cp
NAC642A015 WingCp Coefficients
Strip 1
   8       2.325e-01      -5.600e-01       6.956e-09          0.0085
   9       2.025e-01      -5.600e-01       1.310e-08          0.0138
  10       1.725e-01      -5.600e-01       9.197e-08          0.0194
  11       1.425e-01      -5.600e-01       1.051e-06          0.0266
  12       1.125e-01      -5.600e-01       3.147e-06          0.0363
  13       8.250e-02      -5.600e-01       3.276e-06          0.0505
  14       5.250e-02      -5.600e-01       6.615e-07          0.0800
  15       2.250e-02      -5.600e-01       3.319e-07          0.1894
Strip 2
  16       2.325e-01      -5.067e-01       6.956e-09          0.0107
  17       2.025e-01      -5.067e-01       1.310e-08          0.0175
  18       1.725e-01      -5.067e-01       9.197e-08          0.0245
  19       1.425e-01      -5.067e-01       1.051e-06          0.0333
  20       1.125e-01      -5.067e-01       3.147e-06          0.0449
  21       8.250e-02      -5.067e-01       3.276e-06          0.0614
  22       5.250e-02      -5.067e-01       6.615e-07          0.0941
  23       2.250e-02      -5.067e-01       3.319e-07          0.2140
Strip 3
  24       2.325e-01      -4.533e-01       6.956e-09          0.0124
  25       2.025e-01      -4.533e-01       1.310e-08          0.0203
  26       1.725e-01      -4.533e-01       9.197e-08          0.0283
  27       1.425e-01      -4.533e-01       1.051e-06          0.0381
  28       1.125e-01      -4.533e-01       3.147e-06          0.0508
  29       8.250e-02      -4.533e-01       3.276e-06          0.0686
  30       5.250e-02      -4.533e-01       6.615e-07          0.1033
  31       2.250e-02      -4.533e-01       3.319e-07          0.2305
Strip 4
  32       2.325e-01      -4.000e-01       6.956e-09          0.0137
  33       2.025e-01      -4.000e-01       1.310e-08          0.0224
  34       1.725e-01      -4.000e-01       9.197e-08          0.0311
  35       1.425e-01      -4.000e-01       1.051e-06          0.0416
  36       1.125e-01      -4.000e-01       3.147e-06          0.0550
  37       8.250e-02      -4.000e-01       3.276e-06          0.0737
  38       5.250e-02      -4.000e-01       6.615e-07          0.1098
  39       2.250e-02      -4.000e-01       3.319e-07          0.2423
Strip 5
  40       2.325e-01      -3.467e-01       6.956e-09          0.0147
  41       2.025e-01      -3.467e-01       1.310e-08          0.0240
  42       1.725e-01      -3.467e-01       9.197e-08          0.0332
  43       1.425e-01      -3.467e-01       1.051e-06          0.0441
  44       1.125e-01      -3.467e-01       3.147e-06          0.0581
  45       8.250e-02      -3.467e-01       3.276e-06          0.0774
  46       5.250e-02      -3.467e-01       6.615e-07          0.1146
  47       2.250e-02      -3.467e-01       3.319e-07          0.2511
Strip 6
  48       2.325e-01      -2.933e-01       6.956e-09          0.0154
  49       2.025e-01      -2.933e-01       1.310e-08          0.0251
  50       1.725e-01      -2.933e-01       9.197e-08          0.0347
  51       1.425e-01      -2.933e-01       1.051e-06          0.0460
  52       1.125e-01      -2.933e-01       3.147e-06          0.0603
  53       8.250e-02      -2.933e-01       3.276e-06          0.0802
  54       5.250e-02      -2.933e-01       6.615e-07          0.1181
  55       2.250e-02      -2.933e-01       3.319e-07          0.2577
Strip 7
  56       2.325e-01      -2.400e-01       6.956e-09          0.0160
  57       2.025e-01      -2.400e-01       1.310e-08          0.0260
  58       1.725e-01      -2.400e-01       9.197e-08          0.0359
  59       1.425e-01      -2.400e-01       1.051e-06          0.0474
  60       1.125e-01      -2.400e-01       3.147e-06          0.0620
  61       8.250e-02      -2.400e-01       3.276e-06          0.0822
  62       5.250e-02      -2.400e-01       6.615e-07          0.1207
  63       2.250e-02      -2.400e-01       3.319e-07          0.2626
Strip 8
  64       2.325e-01      -1.867e-01       6.956e-09          0.0164
  65       2.025e-01      -1.867e-01       1.310e-08          0.0267
  66       1.725e-01      -1.867e-01       9.197e-08          0.0367
  67       1.425e-01      -1.867e-01       1.051e-06          0.0485
  68       1.125e-01      -1.867e-01       3.147e-06          0.0632
  69       8.250e-02      -1.867e-01       3.276e-06          0.0837
  70       5.250e-02      -1.867e-01       6.615e-07          0.1227
  71       2.250e-02      -1.867e-01       3.319e-07          0.2663
Strip 9
  72       2.325e-01      -1.333e-01       6.956e-09          0.0167
  73       2.025e-01      -1.333e-01       1.310e-08          0.0271
  74       1.725e-01      -1.333e-01       9.197e-08          0.0373
  75       1.425e-01      -1.333e-01       1.051e-06          0.0492
  76       1.125e-01      -1.333e-01       3.147e-06          0.0641
  77       8.250e-02      -1.333e-01       3.276e-06          0.0847
  78       5.250e-02      -1.333e-01       6.615e-07          0.1240
  79       2.250e-02      -1.333e-01       3.319e-07          0.2689
Strip 10
  80       2.325e-01      -8.000e-02       6.956e-09          0.0169
  81       2.025e-01      -8.000e-02       1.310e-08          0.0274
  82       1.725e-01      -8.000e-02       9.197e-08          0.0376
  83       1.425e-01      -8.000e-02       1.051e-06          0.0496
  84       1.125e-01      -8.000e-02       3.147e-06          0.0646
  85       8.250e-02      -8.000e-02       3.276e-06          0.0854
  86       5.250e-02      -8.000e-02       6.615e-07          0.1249
  87       2.250e-02      -8.000e-02       3.319e-07          0.2705
Strip 11
  88       2.325e-01      -2.667e-02       6.956e-09          0.0169
  89       2.025e-01      -2.667e-02       1.310e-08          0.0275
  90       1.725e-01      -2.667e-02       9.197e-08          0.0378
  91       1.425e-01      -2.667e-02       1.051e-06          0.0498
  92       1.125e-01      -2.667e-02       3.147e-06          0.0649
  93       8.250e-02      -2.667e-02       3.276e-06          0.0857
  94       5.250e-02      -2.667e-02       6.615e-07          0.1253
  95       2.250e-02      -2.667e-02       3.319e-07          0.2713
Strip 12
  96       2.325e-01       2.667e-02       6.956e-09          0.0169
  97       2.025e-01       2.667e-02       1.310e-08          0.0275
  98       1.725e-01       2.667e-02       9.197e-08          0.0378
  99       1.425e-01       2.667e-02       1.051e-06          0.0498
 100       1.125e-01       2.667e-02       3.147e-06          0.0649
 101       8.250e-02       2.667e-02       3.276e-06          0.0857
 102       5.250e-02       2.667e-02       6.615e-07          0.1253
 103       2.250e-02       2.667e-02       3.319e-07          0.2713
Strip 13
 104       2.325e-01       8.000e-02       6.956e-09          0.0169
 105       2.025e-01       8.000e-02       1.310e-08          0.0274
 106       1.725e-01       8.000e-02       9.197e-08          0.0376
 107       1.425e-01       8.000e-02       1.051e-06          0.0496
 108       1.125e-01       8.000e-02       3.147e-06          0.0646
 109       8.250e-02       8.000e-02       3.276e-06          0.0854
 110       5.250e-02       8.000e-02       6.615e-07          0.1249
 111       2.250e-02       8.000e-02       3.319e-07          0.2705
Strip 14
 112       2.325e-01       1.333e-01       6.956e-09          0.0167
 113       2.025e-01       1.333e-01       1.310e-08          0.0271
 114       1.725e-01       1.333e-01       9.197e-08          0.0373
 115       1.425e-01       1.333e-01       1.051e-06          0.0492
 116       1.125e-01       1.333e-01       3.147e-06          0.0641
 117       8.250e-02       1.333e-01       3.276e-06          0.0847
 118       5.250e-02       1.333e-01       6.615e-07          0.1240
 119       2.250e-02       1.333e-01       3.319e-07          0.2689
Strip 15
 120       2.325e-01       1.867e-01       6.956e-09          0.0164
 121       2.025e-01       1.867e-01       1.310e-08          0.0267
 122       1.725e-01       1.867e-01       9.197e-08          0.0367
 123       1.425e-01       1.867e-01       1.051e-06          0.0485
 124       1.125e-01       1.867e-01       3.147e-06          0.0632
 125       8.250e-02       1.867e-01       3.276e-06          0.0837
 126       5.250e-02       1.867e-01       6.615e-07          0.1227
 127       2.250e-02       1.867e-01       3.319e-07          0.2663
Strip 16
 128       2.325e-01       2.400e-01       6.956e-09          0.0160
 129       2.025e-01       2.400e-01       1.310e-08          0.0260
 130       1.725e-01       2.400e-01       9.197e-08          0.0359
 131       1.425e-01       2.400e-01       1.051e-06          0.0474
 132       1.125e-01       2.400e-01       3.147e-06          0.0620
 133       8.250e-02       2.400e-01       3.276e-06          0.0822
 134       5.250e-02       2.400e-01       6.615e-07          0.1207
 135       2.250e-02       2.400e-01       3.319e-07          0.2626
Strip 17
 136       2.325e-01       2.933e-01       6.956e-09          0.0154
 137       2.025e-01       2.933e-01       1.310e-08          0.0251
 138       1.725e-01       2.933e-01       9.197e-08          0.0347
 139       1.425e-01       2.933e-01       1.051e-06          0.0460
 140       1.125e-01       2.933e-01       3.147e-06          0.0603
 141       8.250e-02       2.933e-01       3.276e-06          0.0802
 142       5.250e-02       2.933e-01       6.615e-07          0.1181
 143       2.250e-02       2.933e-01       3.319e-07          0.2577
Strip 18
 144       2.325e-01       3.467e-01       6.956e-09          0.0147
 145       2.025e-01       3.467e-01       1.310e-08          0.0240
 146       1.725e-01       3.467e-01       9.197e-08          0.0332
 147       1.425e-01       3.467e-01       1.051e-06          0.0441
 148       1.125e-01       3.467e-01       3.147e-06          0.0581
 149       8.250e-02       3.467e-01       3.276e-06          0.0774
 150       5.250e-02       3.467e-01       6.615e-07          0.1146
 151       2.250e-02       3.467e-01       3.319e-07          0.2511
Strip 19
 152       2.325e-01       4.000e-01       6.956e-09          0.0137
 153       2.025e-01       4.000e-01       1.310e-08          0.0224
 154       1.725e-01       4.000e-01       9.197e-08          0.0311
 155       1.425e-01       4.000e-01       1.051e-06          0.0416
 156       1.125e-01       4.000e-01       3.147e-06          0.0550
 157       8.250e-02       4.000e-01       3.276e-06          0.0737
 158       5.250e-02       4.000e-01       6.615e-07          0.1098
 159       2.250e-02       4.000e-01       3.319e-07          0.2423
Strip 20
 160       2.325e-01       4.533e-01       6.956e-09          0.0124
 161       2.025e-01       4.533e-01       1.310e-08          0.0203
 162       1.725e-01       4.533e-01       9.197e-08          0.0283
 163       1.425e-01       4.533e-01       1.051e-06          0.0381
 164       1.125e-01       4.533e-01       3.147e-06          0.0508
 165       8.250e-02       4.533e-01       3.276e-06          0.0686
 166       5.250e-02       4.533e-01       6.615e-07          0.1033
 167       2.250e-02       4.533e-01       3.319e-07          0.2305
Strip 21
 168       2.325e-01       5.067e-01       6.956e-09          0.0107
 169       2.025e-01       5.067e-01       1.310e-08          0.0175
 170       1.725e-01       5.067e-01       9.197e-08          0.0245
 171       1.425e-01       5.067e-01       1.051e-06          0.0333
 172       1.125e-01       5.067e-01       3.147e-06          0.0449
 173       8.250e-02       5.067e-01       3.276e-06          0.0614
 174       5.250e-02       5.067e-01       6.615e-07          0.0941
 175       2.250e-02       5.067e-01       3.319e-07          0.2140
Strip 22
 176       2.325e-01       5.600e-01       6.956e-09          0.0085
 177       2.025e-01       5.600e-01       1.310e-08          0.0138
 178       1.725e-01       5.600e-01       9.197e-08          0.0194
 179       1.425e-01       5.600e-01       1.051e-06          0.0266
 180       1.125e-01       5.600e-01       3.147e-06          0.0363
 181       8.250e-02       5.600e-01       3.276e-06          0.0505
 182       5.250e-02       5.600e-01       6.615e-07          0.0800
 183       2.250e-02       5.600e-01       3.319e-07          0.1894
Strip 23
 184       2.325e-01       6.133e-01       6.956e-09          0.0055
 185       2.025e-01       6.133e-01       1.310e-08          0.0088
 186       1.725e-01       6.133e-01       9.197e-08          0.0123
 187       1.425e-01       6.133e-01       1.051e-06          0.0169
 188       1.125e-01       6.133e-01       3.147e-06          0.0233
 189       8.250e-02       6.133e-01       3.276e-06          0.0329
 190       5.250e-02       6.133e-01       6.615e-07          0.0551
 191       2.250e-02       6.133e-01       3.319e-07          0.1460
Strip 24
 192       0.000e+00       0.000e+00       0.000e+00         -0.4499
 193       0.000e+00       0.000e+00       0.000e+00         -0.7236
 194       0.000e+00       0.000e+00       0.000e+00         -1.0045
 195       0.000e+00       0.000e+00       0.000e+00         -1.3727
 196       0.000e+00       0.000e+00       0.000e+00         -1.8867
 197       0.000e+00       0.000e+00       0.000e+00         -2.6875
 198       0.000e+00       0.000e+00       0.000e+00         -4.4954
 199       0.000e+00       0.000e+00       0.000e+00        -11.9135










