XFLR5 v6.02 Beta

NAC642A015 Wing
T1-54.4 m/s-VLM1-x0.000mm
QInf  =   54.400000 m/s
Alpha =    4.500000
Beta  =    0.000°
Phi   =    0.000°
Ctrl  =   18.000
CL    =    0.325285
Cy    =    0.000000
Cd    =    0.012776     ICd   =    0.006159     PCd   =    0.006617
Cl   = -2.09784e-18
Cm   =  -0.0773813
ICn   =    0.000000     PCn   =   -0.000000 
XCP   =    0.057270     YCP   =   -0.000000 
XNP   =    0.000000
Bend. =   23.649128

NAC642A015 Wing
  y-span        Chord      Ai         Cl        PCd          ICd        CmGeom      CmAirf      XTrtop    XTrBot      XCP       BM
   -0.6133     0.2400    -3.312    0.168232    0.006450    0.004890   -0.034044    0.008076     0.6187    0.6911    0.2021    0.0000
   -0.5600     0.2400    -2.993    0.237488    0.006508    0.006234   -0.051888    0.007545     0.5972    0.7073    0.2183    0.2085
   -0.5067     0.2400    -2.718    0.280143    0.006541    0.006674   -0.063882    0.006200     0.5805    0.7187    0.2279    0.7111
   -0.4533     0.2400    -2.487    0.309319    0.006573    0.006740   -0.072371    0.004985     0.5689    0.7262    0.2339    1.5607
   -0.4000     0.2400    -2.297    0.330276    0.006597    0.006646   -0.078539    0.004036     0.5604    0.7316    0.2378    2.7931
   -0.3467     0.2400    -2.144    0.345733    0.006621    0.006492   -0.083095    0.003327     0.5537    0.7356    0.2404    4.4342
   -0.2933     0.2400    -2.023    0.357273    0.006650    0.006327   -0.086486    0.002805     0.5477    0.7387    0.2421    6.5031
   -0.2400     0.2400    -1.928    0.365879    0.006671    0.006174   -0.089005    0.002425     0.5433    0.7410    0.2434    9.0139
   -0.1867     0.2400    -1.856    0.372190    0.006687    0.006046   -0.090844    0.002154     0.5400    0.7426    0.2442   11.9773
   -0.1333     0.2400    -1.805    0.376621    0.006698    0.005948   -0.092131    0.001968     0.5378    0.7438    0.2448   15.4010
   -0.0800     0.2400    -1.771    0.379443    0.006705    0.005882   -0.092948    0.001852     0.5363    0.7446    0.2451   19.2905
   -0.0267     0.2400    -1.755    0.380816    0.006708    0.005849   -0.093344    0.001795     0.5356    0.7449    0.2453   23.6491
    0.0267     0.2400    -1.755    0.380816    0.006708    0.005849   -0.093344    0.001795     0.5356    0.7449    0.2453   23.6491
    0.0800     0.2400    -1.771    0.379443    0.006705    0.005882   -0.092948    0.001852     0.5363    0.7446    0.2451   19.2905
    0.1333     0.2400    -1.805    0.376621    0.006698    0.005948   -0.092131    0.001968     0.5378    0.7438    0.2448   15.4010
    0.1867     0.2400    -1.856    0.372190    0.006687    0.006046   -0.090844    0.002154     0.5400    0.7426    0.2442   11.9773
    0.2400     0.2400    -1.928    0.365879    0.006671    0.006174   -0.089005    0.002425     0.5433    0.7410    0.2434    9.0139
    0.2933     0.2400    -2.023    0.357273    0.006650    0.006327   -0.086486    0.002805     0.5477    0.7387    0.2421    6.5031
    0.3467     0.2400    -2.144    0.345733    0.006621    0.006492   -0.083095    0.003327     0.5537    0.7356    0.2404    4.4342
    0.4000     0.2400    -2.297    0.330276    0.006597    0.006646   -0.078539    0.004036     0.5604    0.7316    0.2378    2.7931
    0.4533     0.2400    -2.487    0.309319    0.006573    0.006740   -0.072371    0.004985     0.5689    0.7262    0.2339    1.5607
    0.5067     0.2400    -2.718    0.280143    0.006541    0.006674   -0.063882    0.006200     0.5805    0.7187    0.2279    0.7111
    0.5600     0.2400    -2.993    0.237488    0.006508    0.006234   -0.051888    0.007545     0.5972    0.7073    0.2183    0.2085
    0.6133     0.2400    -3.312    0.168232    0.006450    0.004890   -0.034044    0.008076     0.6187    0.6911    0.2021    0.0000


Wing Cp Coefficients
 Panel     CtrlPt.x        CtrlPt.y        CtrlPt.z             Cp
NAC642A015 WingCp Coefficients
Strip 1
   8       2.325e-01      -5.600e-01       6.956e-09          0.0380
   9       2.025e-01      -5.600e-01       1.310e-08          0.0623
  10       1.725e-01      -5.600e-01       9.197e-08          0.0874
  11       1.425e-01      -5.600e-01       1.051e-06          0.1183
  12       1.125e-01      -5.600e-01       3.147e-06          0.1609
  13       8.250e-02      -5.600e-01       3.276e-06          0.2272
  14       5.250e-02      -5.600e-01       6.615e-07          0.3585
  15       2.250e-02      -5.600e-01       3.319e-07          0.8493
Strip 2
  16       2.325e-01      -5.067e-01       6.956e-09          0.0479
  17       2.025e-01      -5.067e-01       1.310e-08          0.0789
  18       1.725e-01      -5.067e-01       9.197e-08          0.1105
  19       1.425e-01      -5.067e-01       1.051e-06          0.1486
  20       1.125e-01      -5.067e-01       3.147e-06          0.1995
  21       8.250e-02      -5.067e-01       3.276e-06          0.2759
  22       5.250e-02      -5.067e-01       6.615e-07          0.4218
  23       2.250e-02      -5.067e-01       3.319e-07          0.9596
Strip 3
  24       2.325e-01      -4.533e-01       6.956e-09          0.0556
  25       2.025e-01      -4.533e-01       1.310e-08          0.0914
  26       1.725e-01      -4.533e-01       9.197e-08          0.1274
  27       1.425e-01      -4.533e-01       1.051e-06          0.1701
  28       1.125e-01      -4.533e-01       3.147e-06          0.2260
  29       8.250e-02      -4.533e-01       3.276e-06          0.3083
  30       5.250e-02      -4.533e-01       6.615e-07          0.4632
  31       2.250e-02      -4.533e-01       3.319e-07          1.0334
Strip 4
  32       2.325e-01      -4.000e-01       6.956e-09          0.0615
  33       2.025e-01      -4.000e-01       1.310e-08          0.1007
  34       1.725e-01      -4.000e-01       9.197e-08          0.1399
  35       1.425e-01      -4.000e-01       1.051e-06          0.1857
  36       1.125e-01      -4.000e-01       3.147e-06          0.2448
  37       8.250e-02      -4.000e-01       3.276e-06          0.3311
  38       5.250e-02      -4.000e-01       6.615e-07          0.4923
  39       2.250e-02      -4.000e-01       3.319e-07          1.0864
Strip 5
  40       2.325e-01      -3.467e-01       6.956e-09          0.0659
  41       2.025e-01      -3.467e-01       1.310e-08          0.1077
  42       1.725e-01      -3.467e-01       9.197e-08          0.1492
  43       1.425e-01      -3.467e-01       1.051e-06          0.1971
  44       1.125e-01      -3.467e-01       3.147e-06          0.2586
  45       8.250e-02      -3.467e-01       3.276e-06          0.3477
  46       5.250e-02      -3.467e-01       6.615e-07          0.5136
  47       2.250e-02      -3.467e-01       3.319e-07          1.1257
Strip 6
  48       2.325e-01      -2.933e-01       6.956e-09          0.0692
  49       2.025e-01      -2.933e-01       1.310e-08          0.1130
  50       1.725e-01      -2.933e-01       9.197e-08          0.1561
  51       1.425e-01      -2.933e-01       1.051e-06          0.2056
  52       1.125e-01      -2.933e-01       3.147e-06          0.2688
  53       8.250e-02      -2.933e-01       3.276e-06          0.3600
  54       5.250e-02      -2.933e-01       6.615e-07          0.5294
  55       2.250e-02      -2.933e-01       3.319e-07          1.1553
Strip 7
  56       2.325e-01      -2.400e-01       6.956e-09          0.0717
  57       2.025e-01      -2.400e-01       1.310e-08          0.1169
  58       1.725e-01      -2.400e-01       9.197e-08          0.1612
  59       1.425e-01      -2.400e-01       1.051e-06          0.2119
  60       1.125e-01      -2.400e-01       3.147e-06          0.2763
  61       8.250e-02      -2.400e-01       3.276e-06          0.3691
  62       5.250e-02      -2.400e-01       6.615e-07          0.5412
  63       2.250e-02      -2.400e-01       3.319e-07          1.1775
Strip 8
  64       2.325e-01      -1.867e-01       6.956e-09          0.0735
  65       2.025e-01      -1.867e-01       1.310e-08          0.1197
  66       1.725e-01      -1.867e-01       9.197e-08          0.1649
  67       1.425e-01      -1.867e-01       1.051e-06          0.2165
  68       1.125e-01      -1.867e-01       3.147e-06          0.2818
  69       8.250e-02      -1.867e-01       3.276e-06          0.3757
  70       5.250e-02      -1.867e-01       6.615e-07          0.5499
  71       2.250e-02      -1.867e-01       3.319e-07          1.1939
Strip 9
  72       2.325e-01      -1.333e-01       6.956e-09          0.0748
  73       2.025e-01      -1.333e-01       1.310e-08          0.1217
  74       1.725e-01      -1.333e-01       9.197e-08          0.1675
  75       1.425e-01      -1.333e-01       1.051e-06          0.2197
  76       1.125e-01      -1.333e-01       3.147e-06          0.2856
  77       8.250e-02      -1.333e-01       3.276e-06          0.3804
  78       5.250e-02      -1.333e-01       6.615e-07          0.5560
  79       2.250e-02      -1.333e-01       3.319e-07          1.2055
Strip 10
  80       2.325e-01      -8.000e-02       6.956e-09          0.0756
  81       2.025e-01      -8.000e-02       1.310e-08          0.1230
  82       1.725e-01      -8.000e-02       9.197e-08          0.1692
  83       1.425e-01      -8.000e-02       1.051e-06          0.2217
  84       1.125e-01      -8.000e-02       3.147e-06          0.2880
  85       8.250e-02      -8.000e-02       3.276e-06          0.3833
  86       5.250e-02      -8.000e-02       6.615e-07          0.5599
  87       2.250e-02      -8.000e-02       3.319e-07          1.2129
Strip 11
  88       2.325e-01      -2.667e-02       6.956e-09          0.0760
  89       2.025e-01      -2.667e-02       1.310e-08          0.1236
  90       1.725e-01      -2.667e-02       9.197e-08          0.1700
  91       1.425e-01      -2.667e-02       1.051e-06          0.2227
  92       1.125e-01      -2.667e-02       3.147e-06          0.2892
  93       8.250e-02      -2.667e-02       3.276e-06          0.3848
  94       5.250e-02      -2.667e-02       6.615e-07          0.5617
  95       2.250e-02      -2.667e-02       3.319e-07          1.2165
Strip 12
  96       2.325e-01       2.667e-02       6.956e-09          0.0760
  97       2.025e-01       2.667e-02       1.310e-08          0.1236
  98       1.725e-01       2.667e-02       9.197e-08          0.1700
  99       1.425e-01       2.667e-02       1.051e-06          0.2227
 100       1.125e-01       2.667e-02       3.147e-06          0.2892
 101       8.250e-02       2.667e-02       3.276e-06          0.3848
 102       5.250e-02       2.667e-02       6.615e-07          0.5617
 103       2.250e-02       2.667e-02       3.319e-07          1.2165
Strip 13
 104       2.325e-01       8.000e-02       6.956e-09          0.0756
 105       2.025e-01       8.000e-02       1.310e-08          0.1230
 106       1.725e-01       8.000e-02       9.197e-08          0.1692
 107       1.425e-01       8.000e-02       1.051e-06          0.2217
 108       1.125e-01       8.000e-02       3.147e-06          0.2880
 109       8.250e-02       8.000e-02       3.276e-06          0.3833
 110       5.250e-02       8.000e-02       6.615e-07          0.5599
 111       2.250e-02       8.000e-02       3.319e-07          1.2129
Strip 14
 112       2.325e-01       1.333e-01       6.956e-09          0.0748
 113       2.025e-01       1.333e-01       1.310e-08          0.1217
 114       1.725e-01       1.333e-01       9.197e-08          0.1675
 115       1.425e-01       1.333e-01       1.051e-06          0.2197
 116       1.125e-01       1.333e-01       3.147e-06          0.2856
 117       8.250e-02       1.333e-01       3.276e-06          0.3804
 118       5.250e-02       1.333e-01       6.615e-07          0.5560
 119       2.250e-02       1.333e-01       3.319e-07          1.2055
Strip 15
 120       2.325e-01       1.867e-01       6.956e-09          0.0735
 121       2.025e-01       1.867e-01       1.310e-08          0.1197
 122       1.725e-01       1.867e-01       9.197e-08          0.1649
 123       1.425e-01       1.867e-01       1.051e-06          0.2165
 124       1.125e-01       1.867e-01       3.147e-06          0.2818
 125       8.250e-02       1.867e-01       3.276e-06          0.3757
 126       5.250e-02       1.867e-01       6.615e-07          0.5499
 127       2.250e-02       1.867e-01       3.319e-07          1.1939
Strip 16
 128       2.325e-01       2.400e-01       6.956e-09          0.0717
 129       2.025e-01       2.400e-01       1.310e-08          0.1169
 130       1.725e-01       2.400e-01       9.197e-08          0.1612
 131       1.425e-01       2.400e-01       1.051e-06          0.2119
 132       1.125e-01       2.400e-01       3.147e-06          0.2763
 133       8.250e-02       2.400e-01       3.276e-06          0.3691
 134       5.250e-02       2.400e-01       6.615e-07          0.5412
 135       2.250e-02       2.400e-01       3.319e-07          1.1775
Strip 17
 136       2.325e-01       2.933e-01       6.956e-09          0.0692
 137       2.025e-01       2.933e-01       1.310e-08          0.1130
 138       1.725e-01       2.933e-01       9.197e-08          0.1561
 139       1.425e-01       2.933e-01       1.051e-06          0.2056
 140       1.125e-01       2.933e-01       3.147e-06          0.2688
 141       8.250e-02       2.933e-01       3.276e-06          0.3600
 142       5.250e-02       2.933e-01       6.615e-07          0.5294
 143       2.250e-02       2.933e-01       3.319e-07          1.1553
Strip 18
 144       2.325e-01       3.467e-01       6.956e-09          0.0659
 145       2.025e-01       3.467e-01       1.310e-08          0.1077
 146       1.725e-01       3.467e-01       9.197e-08          0.1492
 147       1.425e-01       3.467e-01       1.051e-06          0.1971
 148       1.125e-01       3.467e-01       3.147e-06          0.2586
 149       8.250e-02       3.467e-01       3.276e-06          0.3477
 150       5.250e-02       3.467e-01       6.615e-07          0.5136
 151       2.250e-02       3.467e-01       3.319e-07          1.1257
Strip 19
 152       2.325e-01       4.000e-01       6.956e-09          0.0615
 153       2.025e-01       4.000e-01       1.310e-08          0.1007
 154       1.725e-01       4.000e-01       9.197e-08          0.1399
 155       1.425e-01       4.000e-01       1.051e-06          0.1857
 156       1.125e-01       4.000e-01       3.147e-06          0.2448
 157       8.250e-02       4.000e-01       3.276e-06          0.3311
 158       5.250e-02       4.000e-01       6.615e-07          0.4923
 159       2.250e-02       4.000e-01       3.319e-07          1.0864
Strip 20
 160       2.325e-01       4.533e-01       6.956e-09          0.0556
 161       2.025e-01       4.533e-01       1.310e-08          0.0914
 162       1.725e-01       4.533e-01       9.197e-08          0.1274
 163       1.425e-01       4.533e-01       1.051e-06          0.1701
 164       1.125e-01       4.533e-01       3.147e-06          0.2260
 165       8.250e-02       4.533e-01       3.276e-06          0.3083
 166       5.250e-02       4.533e-01       6.615e-07          0.4632
 167       2.250e-02       4.533e-01       3.319e-07          1.0334
Strip 21
 168       2.325e-01       5.067e-01       6.956e-09          0.0479
 169       2.025e-01       5.067e-01       1.310e-08          0.0789
 170       1.725e-01       5.067e-01       9.197e-08          0.1105
 171       1.425e-01       5.067e-01       1.051e-06          0.1486
 172       1.125e-01       5.067e-01       3.147e-06          0.1995
 173       8.250e-02       5.067e-01       3.276e-06          0.2759
 174       5.250e-02       5.067e-01       6.615e-07          0.4218
 175       2.250e-02       5.067e-01       3.319e-07          0.9596
Strip 22
 176       2.325e-01       5.600e-01       6.956e-09          0.0380
 177       2.025e-01       5.600e-01       1.310e-08          0.0623
 178       1.725e-01       5.600e-01       9.197e-08          0.0874
 179       1.425e-01       5.600e-01       1.051e-06          0.1183
 180       1.125e-01       5.600e-01       3.147e-06          0.1609
 181       8.250e-02       5.600e-01       3.276e-06          0.2272
 182       5.250e-02       5.600e-01       6.615e-07          0.3585
 183       2.250e-02       5.600e-01       3.319e-07          0.8493
Strip 23
 184       2.325e-01       6.133e-01       6.956e-09          0.0247
 185       2.025e-01       6.133e-01       1.310e-08          0.0399
 186       1.725e-01       6.133e-01       9.197e-08          0.0555
 187       1.425e-01       6.133e-01       1.051e-06          0.0751
 188       1.125e-01       6.133e-01       3.147e-06          0.1028
 189       8.250e-02       6.133e-01       3.276e-06          0.1480
 190       5.250e-02       6.133e-01       6.615e-07          0.2471
 191       2.250e-02       6.133e-01       3.319e-07          0.6548
Strip 24
 192       0.000e+00       0.000e+00       0.000e+00         -1.4943
 193       0.000e+00       0.000e+00       0.000e+00         -2.4111
 194       0.000e+00       0.000e+00       0.000e+00         -3.3506
 195       0.000e+00       0.000e+00       0.000e+00         -4.5323
 196       0.000e+00       0.000e+00       0.000e+00         -6.2035
 197       0.000e+00       0.000e+00       0.000e+00         -8.9407
 198       0.000e+00       0.000e+00       0.000e+00        -14.9199
 199       0.000e+00       0.000e+00       0.000e+00        -39.5384










