XFLR5 v6.02 Beta

NAC642A015 Wing
T1-54.4 m/s-VLM1-x0.000mm
QInf  =   54.400000 m/s
Alpha =   10.000000
Beta  =    0.000°
Phi   =    0.000°
Ctrl  =   18.000
CL    =    0.711538
Cy    =    0.000000
Cd    =    0.041675     ICd   =    0.029798     PCd   =    0.011877
Cl   = 7.34015e-19
Cm   =   -0.169169
ICn   =   -0.000000     PCn   =   -0.000000 
XCP   =    0.057940     YCP   =   -0.000000 
XNP   =    0.000000
Bend. =   51.703178

NAC642A015 Wing
  y-span        Chord      Ai         Cl        PCd          ICd        CmGeom      CmAirf      XTrtop    XTrBot      XCP       BM
   -0.6133     0.2400    -7.211    0.365683    0.006671    0.023661   -0.074425    0.017661     0.5434    0.7409    0.2021    0.0000
   -0.5600     0.2400    -6.521    0.517131    0.007884    0.030163   -0.113435    0.016502     0.3475    0.7859    0.2182    0.4558
   -0.5067     0.2400    -5.925    0.610932    0.010541    0.032294   -0.139656    0.013561     0.0849    0.8284    0.2279    1.5547
   -0.4533     0.2400    -5.424    0.675414    0.011434    0.032612   -0.158215    0.010905     0.0477    0.8611    0.2339    3.4120
   -0.4000     0.2400    -5.012    0.721924    0.012071    0.032156   -0.171699    0.008832     0.0351    0.8920    0.2378    6.1064
   -0.3467     0.2400    -4.680    0.756342    0.012592    0.031410   -0.181659    0.007281     0.0296    0.9197    0.2404    9.6943
   -0.2933     0.2400    -4.415    0.782104    0.013002    0.030612   -0.189073    0.006140     0.0268    0.9376    0.2421   14.2175
   -0.2400     0.2400    -4.209    0.801359    0.013324    0.029875   -0.194580    0.005310     0.0256    0.9475    0.2434   19.7068
   -0.1867     0.2400    -4.053    0.815499    0.013560    0.029256   -0.198601    0.004717     0.0247    0.9547    0.2442   26.1856
   -0.1333     0.2400    -3.941    0.825440    0.013727    0.028781   -0.201414    0.004310     0.0241    0.9598    0.2448   33.6707
   -0.0800     0.2400    -3.868    0.831775    0.013833    0.028460   -0.203200    0.004055     0.0237    0.9629    0.2451   42.1740
   -0.0267     0.2400    -3.833    0.834859    0.013884    0.028299   -0.204068    0.003933     0.0235    0.9645    0.2453   51.7032
    0.0267     0.2400    -3.833    0.834859    0.013884    0.028299   -0.204068    0.003933     0.0235    0.9645    0.2453   51.7032
    0.0800     0.2400    -3.868    0.831775    0.013833    0.028460   -0.203200    0.004055     0.0237    0.9629    0.2451   42.1740
    0.1333     0.2400    -3.941    0.825440    0.013727    0.028781   -0.201414    0.004310     0.0241    0.9598    0.2448   33.6707
    0.1867     0.2400    -4.053    0.815499    0.013560    0.029256   -0.198601    0.004717     0.0247    0.9547    0.2442   26.1856
    0.2400     0.2400    -4.209    0.801359    0.013324    0.029875   -0.194580    0.005310     0.0256    0.9475    0.2434   19.7068
    0.2933     0.2400    -4.415    0.782104    0.013002    0.030612   -0.189073    0.006140     0.0268    0.9376    0.2421   14.2175
    0.3467     0.2400    -4.680    0.756342    0.012592    0.031410   -0.181659    0.007281     0.0296    0.9197    0.2404    9.6943
    0.4000     0.2400    -5.012    0.721924    0.012071    0.032156   -0.171699    0.008832     0.0351    0.8920    0.2378    6.1064
    0.4533     0.2400    -5.424    0.675414    0.011434    0.032612   -0.158215    0.010905     0.0477    0.8611    0.2339    3.4120
    0.5067     0.2400    -5.925    0.610932    0.010541    0.032294   -0.139656    0.013561     0.0849    0.8284    0.2279    1.5547
    0.5600     0.2400    -6.521    0.517131    0.007884    0.030163   -0.113435    0.016502     0.3475    0.7859    0.2182    0.4558
    0.6133     0.2400    -7.211    0.365683    0.006671    0.023661   -0.074425    0.017661     0.5434    0.7409    0.2021    0.0000


Wing Cp Coefficients
 Panel     CtrlPt.x        CtrlPt.y        CtrlPt.z             Cp
NAC642A015 WingCp Coefficients
Strip 1
   8       2.325e-01      -5.600e-01       6.956e-09          0.0830
   9       2.025e-01      -5.600e-01       1.310e-08          0.1364
  10       1.725e-01      -5.600e-01       9.197e-08          0.1912
  11       1.425e-01      -5.600e-01       1.051e-06          0.2585
  12       1.125e-01      -5.600e-01       3.147e-06          0.3512
  13       8.250e-02      -5.600e-01       3.276e-06          0.4969
  14       5.250e-02      -5.600e-01       6.615e-07          0.7839
  15       2.250e-02      -5.600e-01       3.319e-07          1.8570
Strip 2
  16       2.325e-01      -5.067e-01       6.956e-09          0.1049
  17       2.025e-01      -5.067e-01       1.310e-08          0.1726
  18       1.725e-01      -5.067e-01       9.197e-08          0.2417
  19       1.425e-01      -5.067e-01       1.051e-06          0.3246
  20       1.125e-01      -5.067e-01       3.147e-06          0.4355
  21       8.250e-02      -5.067e-01       3.276e-06          0.6034
  22       5.250e-02      -5.067e-01       6.615e-07          0.9221
  23       2.250e-02      -5.067e-01       3.319e-07          2.0981
Strip 3
  24       2.325e-01      -4.533e-01       6.956e-09          0.1216
  25       2.025e-01      -4.533e-01       1.310e-08          0.1999
  26       1.725e-01      -4.533e-01       9.197e-08          0.2788
  27       1.425e-01      -4.533e-01       1.051e-06          0.3717
  28       1.125e-01      -4.533e-01       3.147e-06          0.4935
  29       8.250e-02      -4.533e-01       3.276e-06          0.6743
  30       5.250e-02      -4.533e-01       6.615e-07          1.0127
  31       2.250e-02      -4.533e-01       3.319e-07          2.2595
Strip 4
  32       2.325e-01      -4.000e-01       6.956e-09          0.1344
  33       2.025e-01      -4.000e-01       1.310e-08          0.2203
  34       1.725e-01      -4.000e-01       9.197e-08          0.3060
  35       1.425e-01      -4.000e-01       1.051e-06          0.4057
  36       1.125e-01      -4.000e-01       3.147e-06          0.5347
  37       8.250e-02      -4.000e-01       3.276e-06          0.7241
  38       5.250e-02      -4.000e-01       6.615e-07          1.0764
  39       2.250e-02      -4.000e-01       3.319e-07          2.3753
Strip 5
  40       2.325e-01      -3.467e-01       6.956e-09          0.1440
  41       2.025e-01      -3.467e-01       1.310e-08          0.2357
  42       1.725e-01      -3.467e-01       9.197e-08          0.3263
  43       1.425e-01      -3.467e-01       1.051e-06          0.4307
  44       1.125e-01      -3.467e-01       3.147e-06          0.5648
  45       8.250e-02      -3.467e-01       3.276e-06          0.7604
  46       5.250e-02      -3.467e-01       6.615e-07          1.1229
  47       2.250e-02      -3.467e-01       3.319e-07          2.4613
Strip 6
  48       2.325e-01      -2.933e-01       6.956e-09          0.1513
  49       2.025e-01      -2.933e-01       1.310e-08          0.2471
  50       1.725e-01      -2.933e-01       9.197e-08          0.3414
  51       1.425e-01      -2.933e-01       1.051e-06          0.4493
  52       1.125e-01      -2.933e-01       3.147e-06          0.5870
  53       8.250e-02      -2.933e-01       3.276e-06          0.7872
  54       5.250e-02      -2.933e-01       6.615e-07          1.1576
  55       2.250e-02      -2.933e-01       3.319e-07          2.5259
Strip 7
  56       2.325e-01      -2.400e-01       6.956e-09          0.1567
  57       2.025e-01      -2.400e-01       1.310e-08          0.2557
  58       1.725e-01      -2.400e-01       9.197e-08          0.3525
  59       1.425e-01      -2.400e-01       1.051e-06          0.4630
  60       1.125e-01      -2.400e-01       3.147e-06          0.6035
  61       8.250e-02      -2.400e-01       3.276e-06          0.8071
  62       5.250e-02      -2.400e-01       6.615e-07          1.1834
  63       2.250e-02      -2.400e-01       3.319e-07          2.5746
Strip 8
  64       2.325e-01      -1.867e-01       6.956e-09          0.1607
  65       2.025e-01      -1.867e-01       1.310e-08          0.2619
  66       1.725e-01      -1.867e-01       9.197e-08          0.3607
  67       1.425e-01      -1.867e-01       1.051e-06          0.4730
  68       1.125e-01      -1.867e-01       3.147e-06          0.6155
  69       8.250e-02      -1.867e-01       3.276e-06          0.8217
  70       5.250e-02      -1.867e-01       6.615e-07          1.2023
  71       2.250e-02      -1.867e-01       3.319e-07          2.6104
Strip 9
  72       2.325e-01      -1.333e-01       6.956e-09          0.1635
  73       2.025e-01      -1.333e-01       1.310e-08          0.2663
  74       1.725e-01      -1.333e-01       9.197e-08          0.3664
  75       1.425e-01      -1.333e-01       1.051e-06          0.4800
  76       1.125e-01      -1.333e-01       3.147e-06          0.6238
  77       8.250e-02      -1.333e-01       3.276e-06          0.8318
  78       5.250e-02      -1.333e-01       6.615e-07          1.2156
  79       2.250e-02      -1.333e-01       3.319e-07          2.6358
Strip 10
  80       2.325e-01      -8.000e-02       6.956e-09          0.1653
  81       2.025e-01      -8.000e-02       1.310e-08          0.2690
  82       1.725e-01      -8.000e-02       9.197e-08          0.3700
  83       1.425e-01      -8.000e-02       1.051e-06          0.4844
  84       1.125e-01      -8.000e-02       3.147e-06          0.6291
  85       8.250e-02      -8.000e-02       3.276e-06          0.8383
  86       5.250e-02      -8.000e-02       6.615e-07          1.2241
  87       2.250e-02      -8.000e-02       3.319e-07          2.6520
Strip 11
  88       2.325e-01      -2.667e-02       6.956e-09          0.1661
  89       2.025e-01      -2.667e-02       1.310e-08          0.2704
  90       1.725e-01      -2.667e-02       9.197e-08          0.3717
  91       1.425e-01      -2.667e-02       1.051e-06          0.4866
  92       1.125e-01      -2.667e-02       3.147e-06          0.6317
  93       8.250e-02      -2.667e-02       3.276e-06          0.8414
  94       5.250e-02      -2.667e-02       6.615e-07          1.2282
  95       2.250e-02      -2.667e-02       3.319e-07          2.6599
Strip 12
  96       2.325e-01       2.667e-02       6.956e-09          0.1661
  97       2.025e-01       2.667e-02       1.310e-08          0.2704
  98       1.725e-01       2.667e-02       9.197e-08          0.3717
  99       1.425e-01       2.667e-02       1.051e-06          0.4866
 100       1.125e-01       2.667e-02       3.147e-06          0.6317
 101       8.250e-02       2.667e-02       3.276e-06          0.8414
 102       5.250e-02       2.667e-02       6.615e-07          1.2282
 103       2.250e-02       2.667e-02       3.319e-07          2.6599
Strip 13
 104       2.325e-01       8.000e-02       6.956e-09          0.1653
 105       2.025e-01       8.000e-02       1.310e-08          0.2690
 106       1.725e-01       8.000e-02       9.197e-08          0.3700
 107       1.425e-01       8.000e-02       1.051e-06          0.4844
 108       1.125e-01       8.000e-02       3.147e-06          0.6291
 109       8.250e-02       8.000e-02       3.276e-06          0.8383
 110       5.250e-02       8.000e-02       6.615e-07          1.2241
 111       2.250e-02       8.000e-02       3.319e-07          2.6520
Strip 14
 112       2.325e-01       1.333e-01       6.956e-09          0.1635
 113       2.025e-01       1.333e-01       1.310e-08          0.2663
 114       1.725e-01       1.333e-01       9.197e-08          0.3664
 115       1.425e-01       1.333e-01       1.051e-06          0.4800
 116       1.125e-01       1.333e-01       3.147e-06          0.6238
 117       8.250e-02       1.333e-01       3.276e-06          0.8318
 118       5.250e-02       1.333e-01       6.615e-07          1.2156
 119       2.250e-02       1.333e-01       3.319e-07          2.6358
Strip 15
 120       2.325e-01       1.867e-01       6.956e-09          0.1607
 121       2.025e-01       1.867e-01       1.310e-08          0.2619
 122       1.725e-01       1.867e-01       9.197e-08          0.3607
 123       1.425e-01       1.867e-01       1.051e-06          0.4730
 124       1.125e-01       1.867e-01       3.147e-06          0.6155
 125       8.250e-02       1.867e-01       3.276e-06          0.8217
 126       5.250e-02       1.867e-01       6.615e-07          1.2023
 127       2.250e-02       1.867e-01       3.319e-07          2.6104
Strip 16
 128       2.325e-01       2.400e-01       6.956e-09          0.1567
 129       2.025e-01       2.400e-01       1.310e-08          0.2557
 130       1.725e-01       2.400e-01       9.197e-08          0.3525
 131       1.425e-01       2.400e-01       1.051e-06          0.4630
 132       1.125e-01       2.400e-01       3.147e-06          0.6035
 133       8.250e-02       2.400e-01       3.276e-06          0.8071
 134       5.250e-02       2.400e-01       6.615e-07          1.1834
 135       2.250e-02       2.400e-01       3.319e-07          2.5746
Strip 17
 136       2.325e-01       2.933e-01       6.956e-09          0.1513
 137       2.025e-01       2.933e-01       1.310e-08          0.2471
 138       1.725e-01       2.933e-01       9.197e-08          0.3414
 139       1.425e-01       2.933e-01       1.051e-06          0.4493
 140       1.125e-01       2.933e-01       3.147e-06          0.5870
 141       8.250e-02       2.933e-01       3.276e-06          0.7872
 142       5.250e-02       2.933e-01       6.615e-07          1.1576
 143       2.250e-02       2.933e-01       3.319e-07          2.5259
Strip 18
 144       2.325e-01       3.467e-01       6.956e-09          0.1440
 145       2.025e-01       3.467e-01       1.310e-08          0.2357
 146       1.725e-01       3.467e-01       9.197e-08          0.3263
 147       1.425e-01       3.467e-01       1.051e-06          0.4307
 148       1.125e-01       3.467e-01       3.147e-06          0.5648
 149       8.250e-02       3.467e-01       3.276e-06          0.7604
 150       5.250e-02       3.467e-01       6.615e-07          1.1229
 151       2.250e-02       3.467e-01       3.319e-07          2.4613
Strip 19
 152       2.325e-01       4.000e-01       6.956e-09          0.1344
 153       2.025e-01       4.000e-01       1.310e-08          0.2203
 154       1.725e-01       4.000e-01       9.197e-08          0.3060
 155       1.425e-01       4.000e-01       1.051e-06          0.4057
 156       1.125e-01       4.000e-01       3.147e-06          0.5347
 157       8.250e-02       4.000e-01       3.276e-06          0.7241
 158       5.250e-02       4.000e-01       6.615e-07          1.0764
 159       2.250e-02       4.000e-01       3.319e-07          2.3753
Strip 20
 160       2.325e-01       4.533e-01       6.956e-09          0.1216
 161       2.025e-01       4.533e-01       1.310e-08          0.1999
 162       1.725e-01       4.533e-01       9.197e-08          0.2788
 163       1.425e-01       4.533e-01       1.051e-06          0.3717
 164       1.125e-01       4.533e-01       3.147e-06          0.4935
 165       8.250e-02       4.533e-01       3.276e-06          0.6743
 166       5.250e-02       4.533e-01       6.615e-07          1.0127
 167       2.250e-02       4.533e-01       3.319e-07          2.2595
Strip 21
 168       2.325e-01       5.067e-01       6.956e-09          0.1049
 169       2.025e-01       5.067e-01       1.310e-08          0.1726
 170       1.725e-01       5.067e-01       9.197e-08          0.2417
 171       1.425e-01       5.067e-01       1.051e-06          0.3246
 172       1.125e-01       5.067e-01       3.147e-06          0.4355
 173       8.250e-02       5.067e-01       3.276e-06          0.6034
 174       5.250e-02       5.067e-01       6.615e-07          0.9221
 175       2.250e-02       5.067e-01       3.319e-07          2.0981
Strip 22
 176       2.325e-01       5.600e-01       6.956e-09          0.0830
 177       2.025e-01       5.600e-01       1.310e-08          0.1364
 178       1.725e-01       5.600e-01       9.197e-08          0.1912
 179       1.425e-01       5.600e-01       1.051e-06          0.2585
 180       1.125e-01       5.600e-01       3.147e-06          0.3512
 181       8.250e-02       5.600e-01       3.276e-06          0.4969
 182       5.250e-02       5.600e-01       6.615e-07          0.7839
 183       2.250e-02       5.600e-01       3.319e-07          1.8570
Strip 23
 184       2.325e-01       6.133e-01       6.956e-09          0.0541
 185       2.025e-01       6.133e-01       1.310e-08          0.0874
 186       1.725e-01       6.133e-01       9.197e-08          0.1215
 187       1.425e-01       6.133e-01       1.051e-06          0.1639
 188       1.125e-01       6.133e-01       3.147e-06          0.2242
 189       8.250e-02       6.133e-01       3.276e-06          0.3239
 190       5.250e-02       6.133e-01       6.615e-07          0.5402
 191       2.250e-02       6.133e-01       3.319e-07          1.4316
Strip 24
 192       0.000e+00       0.000e+00       0.000e+00         -3.0847
 193       0.000e+00       0.000e+00       0.000e+00         -4.9807
 194       0.000e+00       0.000e+00       0.000e+00         -6.9231
 195       0.000e+00       0.000e+00       0.000e+00         -9.3431
 196       0.000e+00       0.000e+00       0.000e+00        -12.7761
 197       0.000e+00       0.000e+00       0.000e+00        -18.4627
 198       0.000e+00       0.000e+00       0.000e+00        -30.7932
 199       0.000e+00       0.000e+00       0.000e+00        -81.6023










