XFLR5 v6.02 Beta

NAC642A015 Wing
T1-54.4 m/s-VLM1-x0.000mm
QInf  =   54.400000 m/s
Alpha =    6.000000
Beta  =    0.000°
Phi   =    0.000°
Ctrl  =   18.000
CL    =    0.432357
Cy    =    0.000000
Cd    =    0.017886     ICd   =    0.010904     PCd   =    0.006982
Cl   = -3.44282e-18
Cm   =   -0.102841
ICn   =    0.000000     PCn   =    0.000000 
XCP   =    0.057401     YCP   =   -0.000000 
XNP   =    0.000000
Bend. =   31.430683

NAC642A015 Wing
  y-span        Chord      Ai         Cl        PCd          ICd        CmGeom      CmAirf      XTrtop    XTrBot      XCP       BM
   -0.6133     0.2400    -4.398    0.223332    0.006496    0.008659   -0.045245    0.010735     0.6022    0.7038    0.2021    0.0000
   -0.5600     0.2400    -3.975    0.315379    0.006580    0.011038   -0.068960    0.010030     0.5664    0.7278    0.2183    0.2771
   -0.5067     0.2400    -3.610    0.372133    0.006687    0.011818   -0.084900    0.008242     0.5401    0.7426    0.2279    0.9451
   -0.4533     0.2400    -3.304    0.410992    0.006783    0.011934   -0.096182    0.006627     0.5200    0.7530    0.2339    2.0742
   -0.4000     0.2400    -3.052    0.438928    0.006852    0.011767   -0.104380    0.005366     0.5055    0.7605    0.2378    3.7121
   -0.3467     0.2400    -2.849    0.459546    0.006944    0.011494   -0.110434    0.004424     0.4872    0.7662    0.2404    5.8933
   -0.2933     0.2400    -2.687    0.474946    0.007064    0.011202   -0.114941    0.003730     0.4642    0.7709    0.2421    8.6429
   -0.2400     0.2400    -2.562    0.486437    0.007153    0.010932   -0.118289    0.003225     0.4470    0.7743    0.2434   11.9799
   -0.1867     0.2400    -2.466    0.494865    0.007219    0.010706   -0.120733    0.002865     0.4344    0.7769    0.2442   15.9184
   -0.1333     0.2400    -2.398    0.500785    0.007265    0.010532   -0.122443    0.002618     0.4255    0.7787    0.2448   20.4686
   -0.0800     0.2400    -2.354    0.504555    0.007331    0.010415   -0.123529    0.002463     0.4159    0.7800    0.2451   25.6378
   -0.0267     0.2400    -2.332    0.506389    0.007412    0.010356   -0.124057    0.002388     0.4059    0.7809    0.2453   31.4307
    0.0267     0.2400    -2.332    0.506389    0.007412    0.010356   -0.124057    0.002388     0.4059    0.7809    0.2453   31.4307
    0.0800     0.2400    -2.354    0.504555    0.007331    0.010415   -0.123529    0.002463     0.4159    0.7800    0.2451   25.6378
    0.1333     0.2400    -2.398    0.500785    0.007265    0.010532   -0.122443    0.002618     0.4255    0.7787    0.2448   20.4686
    0.1867     0.2400    -2.466    0.494865    0.007219    0.010706   -0.120733    0.002865     0.4344    0.7769    0.2442   15.9184
    0.2400     0.2400    -2.562    0.486437    0.007153    0.010932   -0.118289    0.003225     0.4470    0.7743    0.2434   11.9799
    0.2933     0.2400    -2.687    0.474946    0.007064    0.011202   -0.114941    0.003730     0.4642    0.7709    0.2421    8.6429
    0.3467     0.2400    -2.849    0.459546    0.006944    0.011494   -0.110434    0.004424     0.4872    0.7662    0.2404    5.8933
    0.4000     0.2400    -3.052    0.438928    0.006852    0.011767   -0.104380    0.005366     0.5055    0.7605    0.2378    3.7121
    0.4533     0.2400    -3.304    0.410992    0.006783    0.011934   -0.096182    0.006627     0.5200    0.7530    0.2339    2.0742
    0.5067     0.2400    -3.610    0.372133    0.006687    0.011818   -0.084900    0.008242     0.5401    0.7426    0.2279    0.9451
    0.5600     0.2400    -3.975    0.315379    0.006580    0.011038   -0.068960    0.010030     0.5664    0.7278    0.2183    0.2771
    0.6133     0.2400    -4.398    0.223332    0.006496    0.008659   -0.045245    0.010735     0.6022    0.7038    0.2021    0.0000


Wing Cp Coefficients
 Panel     CtrlPt.x        CtrlPt.y        CtrlPt.z             Cp
NAC642A015 WingCp Coefficients
Strip 1
   8       2.325e-01      -5.600e-01       6.956e-09          0.0505
   9       2.025e-01      -5.600e-01       1.310e-08          0.0829
  10       1.725e-01      -5.600e-01       9.197e-08          0.1162
  11       1.425e-01      -5.600e-01       1.051e-06          0.1572
  12       1.125e-01      -5.600e-01       3.147e-06          0.2137
  13       8.250e-02      -5.600e-01       3.276e-06          0.3020
  14       5.250e-02      -5.600e-01       6.615e-07          0.4765
  15       2.250e-02      -5.600e-01       3.319e-07          1.1288
Strip 2
  16       2.325e-01      -5.067e-01       6.956e-09          0.0637
  17       2.025e-01      -5.067e-01       1.310e-08          0.1049
  18       1.725e-01      -5.067e-01       9.197e-08          0.1469
  19       1.425e-01      -5.067e-01       1.051e-06          0.1974
  20       1.125e-01      -5.067e-01       3.147e-06          0.2649
  21       8.250e-02      -5.067e-01       3.276e-06          0.3667
  22       5.250e-02      -5.067e-01       6.615e-07          0.5606
  23       2.250e-02      -5.067e-01       3.319e-07          1.2754
Strip 3
  24       2.325e-01      -4.533e-01       6.956e-09          0.0739
  25       2.025e-01      -4.533e-01       1.310e-08          0.1215
  26       1.725e-01      -4.533e-01       9.197e-08          0.1694
  27       1.425e-01      -4.533e-01       1.051e-06          0.2260
  28       1.125e-01      -4.533e-01       3.147e-06          0.3002
  29       8.250e-02      -4.533e-01       3.276e-06          0.4098
  30       5.250e-02      -4.533e-01       6.615e-07          0.6156
  31       2.250e-02      -4.533e-01       3.319e-07          1.3735
Strip 4
  32       2.325e-01      -4.000e-01       6.956e-09          0.0817
  33       2.025e-01      -4.000e-01       1.310e-08          0.1339
  34       1.725e-01      -4.000e-01       9.197e-08          0.1860
  35       1.425e-01      -4.000e-01       1.051e-06          0.2467
  36       1.125e-01      -4.000e-01       3.147e-06          0.3252
  37       8.250e-02      -4.000e-01       3.276e-06          0.4401
  38       5.250e-02      -4.000e-01       6.615e-07          0.6543
  39       2.250e-02      -4.000e-01       3.319e-07          1.4439
Strip 5
  40       2.325e-01      -3.467e-01       6.956e-09          0.0875
  41       2.025e-01      -3.467e-01       1.310e-08          0.1432
  42       1.725e-01      -3.467e-01       9.197e-08          0.1983
  43       1.425e-01      -3.467e-01       1.051e-06          0.2619
  44       1.125e-01      -3.467e-01       3.147e-06          0.3435
  45       8.250e-02      -3.467e-01       3.276e-06          0.4622
  46       5.250e-02      -3.467e-01       6.615e-07          0.6826
  47       2.250e-02      -3.467e-01       3.319e-07          1.4962
Strip 6
  48       2.325e-01      -2.933e-01       6.956e-09          0.0920
  49       2.025e-01      -2.933e-01       1.310e-08          0.1502
  50       1.725e-01      -2.933e-01       9.197e-08          0.2075
  51       1.425e-01      -2.933e-01       1.051e-06          0.2732
  52       1.125e-01      -2.933e-01       3.147e-06          0.3570
  53       8.250e-02      -2.933e-01       3.276e-06          0.4785
  54       5.250e-02      -2.933e-01       6.615e-07          0.7037
  55       2.250e-02      -2.933e-01       3.319e-07          1.5355
Strip 7
  56       2.325e-01      -2.400e-01       6.956e-09          0.0953
  57       2.025e-01      -2.400e-01       1.310e-08          0.1554
  58       1.725e-01      -2.400e-01       9.197e-08          0.2143
  59       1.425e-01      -2.400e-01       1.051e-06          0.2815
  60       1.125e-01      -2.400e-01       3.147e-06          0.3670
  61       8.250e-02      -2.400e-01       3.276e-06          0.4906
  62       5.250e-02      -2.400e-01       6.615e-07          0.7194
  63       2.250e-02      -2.400e-01       3.319e-07          1.5650
Strip 8
  64       2.325e-01      -1.867e-01       6.956e-09          0.0977
  65       2.025e-01      -1.867e-01       1.310e-08          0.1592
  66       1.725e-01      -1.867e-01       9.197e-08          0.2192
  67       1.425e-01      -1.867e-01       1.051e-06          0.2876
  68       1.125e-01      -1.867e-01       3.147e-06          0.3743
  69       8.250e-02      -1.867e-01       3.276e-06          0.4994
  70       5.250e-02      -1.867e-01       6.615e-07          0.7309
  71       2.250e-02      -1.867e-01       3.319e-07          1.5868
Strip 9
  72       2.325e-01      -1.333e-01       6.956e-09          0.0994
  73       2.025e-01      -1.333e-01       1.310e-08          0.1618
  74       1.725e-01      -1.333e-01       9.197e-08          0.2227
  75       1.425e-01      -1.333e-01       1.051e-06          0.2919
  76       1.125e-01      -1.333e-01       3.147e-06          0.3794
  77       8.250e-02      -1.333e-01       3.276e-06          0.5056
  78       5.250e-02      -1.333e-01       6.615e-07          0.7389
  79       2.250e-02      -1.333e-01       3.319e-07          1.6022
Strip 10
  80       2.325e-01      -8.000e-02       6.956e-09          0.1005
  81       2.025e-01      -8.000e-02       1.310e-08          0.1635
  82       1.725e-01      -8.000e-02       9.197e-08          0.2249
  83       1.425e-01      -8.000e-02       1.051e-06          0.2946
  84       1.125e-01      -8.000e-02       3.147e-06          0.3827
  85       8.250e-02      -8.000e-02       3.276e-06          0.5095
  86       5.250e-02      -8.000e-02       6.615e-07          0.7441
  87       2.250e-02      -8.000e-02       3.319e-07          1.6121
Strip 11
  88       2.325e-01      -2.667e-02       6.956e-09          0.1010
  89       2.025e-01      -2.667e-02       1.310e-08          0.1643
  90       1.725e-01      -2.667e-02       9.197e-08          0.2259
  91       1.425e-01      -2.667e-02       1.051e-06          0.2959
  92       1.125e-01      -2.667e-02       3.147e-06          0.3842
  93       8.250e-02      -2.667e-02       3.276e-06          0.5114
  94       5.250e-02      -2.667e-02       6.615e-07          0.7466
  95       2.250e-02      -2.667e-02       3.319e-07          1.6169
Strip 12
  96       2.325e-01       2.667e-02       6.956e-09          0.1010
  97       2.025e-01       2.667e-02       1.310e-08          0.1643
  98       1.725e-01       2.667e-02       9.197e-08          0.2259
  99       1.425e-01       2.667e-02       1.051e-06          0.2959
 100       1.125e-01       2.667e-02       3.147e-06          0.3842
 101       8.250e-02       2.667e-02       3.276e-06          0.5114
 102       5.250e-02       2.667e-02       6.615e-07          0.7466
 103       2.250e-02       2.667e-02       3.319e-07          1.6169
Strip 13
 104       2.325e-01       8.000e-02       6.956e-09          0.1005
 105       2.025e-01       8.000e-02       1.310e-08          0.1635
 106       1.725e-01       8.000e-02       9.197e-08          0.2249
 107       1.425e-01       8.000e-02       1.051e-06          0.2946
 108       1.125e-01       8.000e-02       3.147e-06          0.3827
 109       8.250e-02       8.000e-02       3.276e-06          0.5095
 110       5.250e-02       8.000e-02       6.615e-07          0.7441
 111       2.250e-02       8.000e-02       3.319e-07          1.6121
Strip 14
 112       2.325e-01       1.333e-01       6.956e-09          0.0994
 113       2.025e-01       1.333e-01       1.310e-08          0.1618
 114       1.725e-01       1.333e-01       9.197e-08          0.2227
 115       1.425e-01       1.333e-01       1.051e-06          0.2919
 116       1.125e-01       1.333e-01       3.147e-06          0.3794
 117       8.250e-02       1.333e-01       3.276e-06          0.5056
 118       5.250e-02       1.333e-01       6.615e-07          0.7389
 119       2.250e-02       1.333e-01       3.319e-07          1.6022
Strip 15
 120       2.325e-01       1.867e-01       6.956e-09          0.0977
 121       2.025e-01       1.867e-01       1.310e-08          0.1592
 122       1.725e-01       1.867e-01       9.197e-08          0.2192
 123       1.425e-01       1.867e-01       1.051e-06          0.2876
 124       1.125e-01       1.867e-01       3.147e-06          0.3743
 125       8.250e-02       1.867e-01       3.276e-06          0.4994
 126       5.250e-02       1.867e-01       6.615e-07          0.7309
 127       2.250e-02       1.867e-01       3.319e-07          1.5868
Strip 16
 128       2.325e-01       2.400e-01       6.956e-09          0.0953
 129       2.025e-01       2.400e-01       1.310e-08          0.1554
 130       1.725e-01       2.400e-01       9.197e-08          0.2143
 131       1.425e-01       2.400e-01       1.051e-06          0.2815
 132       1.125e-01       2.400e-01       3.147e-06          0.3670
 133       8.250e-02       2.400e-01       3.276e-06          0.4906
 134       5.250e-02       2.400e-01       6.615e-07          0.7194
 135       2.250e-02       2.400e-01       3.319e-07          1.5650
Strip 17
 136       2.325e-01       2.933e-01       6.956e-09          0.0920
 137       2.025e-01       2.933e-01       1.310e-08          0.1502
 138       1.725e-01       2.933e-01       9.197e-08          0.2075
 139       1.425e-01       2.933e-01       1.051e-06          0.2732
 140       1.125e-01       2.933e-01       3.147e-06          0.3570
 141       8.250e-02       2.933e-01       3.276e-06          0.4785
 142       5.250e-02       2.933e-01       6.615e-07          0.7037
 143       2.250e-02       2.933e-01       3.319e-07          1.5355
Strip 18
 144       2.325e-01       3.467e-01       6.956e-09          0.0875
 145       2.025e-01       3.467e-01       1.310e-08          0.1432
 146       1.725e-01       3.467e-01       9.197e-08          0.1983
 147       1.425e-01       3.467e-01       1.051e-06          0.2619
 148       1.125e-01       3.467e-01       3.147e-06          0.3435
 149       8.250e-02       3.467e-01       3.276e-06          0.4622
 150       5.250e-02       3.467e-01       6.615e-07          0.6826
 151       2.250e-02       3.467e-01       3.319e-07          1.4962
Strip 19
 152       2.325e-01       4.000e-01       6.956e-09          0.0817
 153       2.025e-01       4.000e-01       1.310e-08          0.1339
 154       1.725e-01       4.000e-01       9.197e-08          0.1860
 155       1.425e-01       4.000e-01       1.051e-06          0.2467
 156       1.125e-01       4.000e-01       3.147e-06          0.3252
 157       8.250e-02       4.000e-01       3.276e-06          0.4401
 158       5.250e-02       4.000e-01       6.615e-07          0.6543
 159       2.250e-02       4.000e-01       3.319e-07          1.4439
Strip 20
 160       2.325e-01       4.533e-01       6.956e-09          0.0739
 161       2.025e-01       4.533e-01       1.310e-08          0.1215
 162       1.725e-01       4.533e-01       9.197e-08          0.1694
 163       1.425e-01       4.533e-01       1.051e-06          0.2260
 164       1.125e-01       4.533e-01       3.147e-06          0.3002
 165       8.250e-02       4.533e-01       3.276e-06          0.4098
 166       5.250e-02       4.533e-01       6.615e-07          0.6156
 167       2.250e-02       4.533e-01       3.319e-07          1.3735
Strip 21
 168       2.325e-01       5.067e-01       6.956e-09          0.0637
 169       2.025e-01       5.067e-01       1.310e-08          0.1049
 170       1.725e-01       5.067e-01       9.197e-08          0.1469
 171       1.425e-01       5.067e-01       1.051e-06          0.1974
 172       1.125e-01       5.067e-01       3.147e-06          0.2649
 173       8.250e-02       5.067e-01       3.276e-06          0.3667
 174       5.250e-02       5.067e-01       6.615e-07          0.5606
 175       2.250e-02       5.067e-01       3.319e-07          1.2754
Strip 22
 176       2.325e-01       5.600e-01       6.956e-09          0.0505
 177       2.025e-01       5.600e-01       1.310e-08          0.0829
 178       1.725e-01       5.600e-01       9.197e-08          0.1162
 179       1.425e-01       5.600e-01       1.051e-06          0.1572
 180       1.125e-01       5.600e-01       3.147e-06          0.2137
 181       8.250e-02       5.600e-01       3.276e-06          0.3020
 182       5.250e-02       5.600e-01       6.615e-07          0.4765
 183       2.250e-02       5.600e-01       3.319e-07          1.1288
Strip 23
 184       2.325e-01       6.133e-01       6.956e-09          0.0329
 185       2.025e-01       6.133e-01       1.310e-08          0.0531
 186       1.725e-01       6.133e-01       9.197e-08          0.0738
 187       1.425e-01       6.133e-01       1.051e-06          0.0997
 188       1.125e-01       6.133e-01       3.147e-06          0.1364
 189       8.250e-02       6.133e-01       3.276e-06          0.1968
 190       5.250e-02       6.133e-01       6.615e-07          0.3284
 191       2.250e-02       6.133e-01       3.319e-07          0.8702
Strip 24
 192       0.000e+00       0.000e+00       0.000e+00         -1.9360
 193       0.000e+00       0.000e+00       0.000e+00         -3.1247
 194       0.000e+00       0.000e+00       0.000e+00         -4.3428
 195       0.000e+00       0.000e+00       0.000e+00         -5.8684
 196       0.000e+00       0.000e+00       0.000e+00         -8.0289
 197       0.000e+00       0.000e+00       0.000e+00        -11.5853
 198       0.000e+00       0.000e+00       0.000e+00        -19.3284
 199       0.000e+00       0.000e+00       0.000e+00        -51.2209










