XFLR5 v6.02 Beta

NAC642A015 Wing
T1-54.4 m/s-VLM1-x0.000mm
QInf  =   54.400000 m/s
Alpha =   -2.000000
Beta  =    0.000°
Phi   =    0.000°
Ctrl  =   18.000
CL    =   -0.145002
Cy    =    0.000000
Cd    =    0.007681     ICd   =    0.001221     PCd   =    0.006460
Cl   = -3.92413e-18
Cm   =   0.0344888
ICn   =   -0.000000     PCn   =    0.000000 
XCP   =    0.057119     YCP   =    0.000000 
XNP   =    0.000000
Bend. =  -10.543056

NAC642A015 Wing
  y-span        Chord      Ai         Cl        PCd          ICd        CmGeom      CmAirf      XTrtop    XTrBot      XCP       BM
   -0.6133     0.2400     1.478   -0.075090    0.006424    0.000970    0.015172   -0.003606     0.6697    0.6383    0.2020    0.0000
   -0.5600     0.2400     1.335   -0.105963    0.006444    0.001236    0.023125   -0.003371     0.6762    0.6323    0.2182   -0.0929
   -0.5067     0.2400     1.212   -0.124956    0.006454    0.001323    0.028471   -0.002772     0.6806    0.6283    0.2278   -0.3170
   -0.4533     0.2400     1.109   -0.137935    0.006459    0.001336    0.032255   -0.002231     0.6838    0.6254    0.2338   -0.6958
   -0.4000     0.2400     1.025   -0.147249    0.006462    0.001318    0.035004   -0.001808     0.6861    0.6232    0.2377   -1.2452
   -0.3467     0.2400     0.956   -0.154115    0.006465    0.001287    0.037035   -0.001492     0.6878    0.6217    0.2403   -1.9768
   -0.2933     0.2400     0.902   -0.159237    0.006467    0.001254    0.038547   -0.001260     0.6891    0.6205    0.2421   -2.8992
   -0.2400     0.2400     0.860   -0.163056    0.006468    0.001224    0.039670   -0.001090     0.6900    0.6196    0.2433   -4.0185
   -0.1867     0.2400     0.828   -0.165855    0.006469    0.001199    0.040490   -0.000969     0.6907    0.6190    0.2442   -5.3396
   -0.1333     0.2400     0.805   -0.167820    0.006470    0.001179    0.041064   -0.000886     0.6912    0.6185    0.2447   -6.8660
   -0.0800     0.2400     0.790   -0.169072    0.006470    0.001166    0.041428   -0.000835     0.6915    0.6183    0.2451   -8.5999
   -0.0267     0.2400     0.783   -0.169680    0.006471    0.001160    0.041605   -0.000810     0.6917    0.6181    0.2452   -10.5431
    0.0267     0.2400     0.783   -0.169680    0.006471    0.001160    0.041605   -0.000810     0.6917    0.6181    0.2452   -10.5431
    0.0800     0.2400     0.790   -0.169072    0.006470    0.001166    0.041428   -0.000835     0.6915    0.6183    0.2451   -8.5999
    0.1333     0.2400     0.805   -0.167820    0.006470    0.001179    0.041064   -0.000886     0.6912    0.6185    0.2447   -6.8660
    0.1867     0.2400     0.828   -0.165855    0.006469    0.001199    0.040490   -0.000969     0.6907    0.6190    0.2442   -5.3396
    0.2400     0.2400     0.860   -0.163056    0.006468    0.001224    0.039670   -0.001090     0.6900    0.6196    0.2433   -4.0185
    0.2933     0.2400     0.902   -0.159237    0.006467    0.001254    0.038547   -0.001260     0.6891    0.6205    0.2421   -2.8992
    0.3467     0.2400     0.956   -0.154115    0.006465    0.001287    0.037035   -0.001492     0.6878    0.6217    0.2403   -1.9768
    0.4000     0.2400     1.025   -0.147249    0.006462    0.001318    0.035004   -0.001808     0.6861    0.6232    0.2377   -1.2452
    0.4533     0.2400     1.109   -0.137935    0.006459    0.001336    0.032255   -0.002231     0.6838    0.6254    0.2338   -0.6958
    0.5067     0.2400     1.212   -0.124956    0.006454    0.001323    0.028471   -0.002772     0.6806    0.6283    0.2278   -0.3170
    0.5600     0.2400     1.335   -0.105963    0.006444    0.001236    0.023125   -0.003371     0.6762    0.6323    0.2182   -0.0929
    0.6133     0.2400     1.478   -0.075090    0.006424    0.000970    0.015172   -0.003606     0.6697    0.6383    0.2020    0.0000


Wing Cp Coefficients
 Panel     CtrlPt.x        CtrlPt.y        CtrlPt.z             Cp
NAC642A015 WingCp Coefficients
Strip 1
   8       2.325e-01      -5.600e-01       6.956e-09         -0.0169
   9       2.025e-01      -5.600e-01       1.310e-08         -0.0279
  10       1.725e-01      -5.600e-01       9.197e-08         -0.0392
  11       1.425e-01      -5.600e-01       1.051e-06         -0.0525
  12       1.125e-01      -5.600e-01       3.147e-06         -0.0711
  13       8.250e-02      -5.600e-01       3.276e-06         -0.1016
  14       5.250e-02      -5.600e-01       6.615e-07         -0.1599
  15       2.250e-02      -5.600e-01       3.319e-07         -0.3789
Strip 2
  16       2.325e-01      -5.067e-01       6.956e-09         -0.0214
  17       2.025e-01      -5.067e-01       1.310e-08         -0.0353
  18       1.725e-01      -5.067e-01       9.197e-08         -0.0495
  19       1.425e-01      -5.067e-01       1.051e-06         -0.0660
  20       1.125e-01      -5.067e-01       3.147e-06         -0.0882
  21       8.250e-02      -5.067e-01       3.276e-06         -0.1233
  22       5.250e-02      -5.067e-01       6.615e-07         -0.1881
  23       2.250e-02      -5.067e-01       3.319e-07         -0.4280
Strip 3
  24       2.325e-01      -4.533e-01       6.956e-09         -0.0248
  25       2.025e-01      -4.533e-01       1.310e-08         -0.0409
  26       1.725e-01      -4.533e-01       9.197e-08         -0.0570
  27       1.425e-01      -4.533e-01       1.051e-06         -0.0756
  28       1.125e-01      -4.533e-01       3.147e-06         -0.1001
  29       8.250e-02      -4.533e-01       3.276e-06         -0.1377
  30       5.250e-02      -4.533e-01       6.615e-07         -0.2066
  31       2.250e-02      -4.533e-01       3.319e-07         -0.4609
Strip 4
  32       2.325e-01      -4.000e-01       6.956e-09         -0.0274
  33       2.025e-01      -4.000e-01       1.310e-08         -0.0450
  34       1.725e-01      -4.000e-01       9.197e-08         -0.0626
  35       1.425e-01      -4.000e-01       1.051e-06         -0.0825
  36       1.125e-01      -4.000e-01       3.147e-06         -0.1085
  37       8.250e-02      -4.000e-01       3.276e-06         -0.1479
  38       5.250e-02      -4.000e-01       6.615e-07         -0.2196
  39       2.250e-02      -4.000e-01       3.319e-07         -0.4846
Strip 5
  40       2.325e-01      -3.467e-01       6.956e-09         -0.0294
  41       2.025e-01      -3.467e-01       1.310e-08         -0.0482
  42       1.725e-01      -3.467e-01       9.197e-08         -0.0667
  43       1.425e-01      -3.467e-01       1.051e-06         -0.0876
  44       1.125e-01      -3.467e-01       3.147e-06         -0.1146
  45       8.250e-02      -3.467e-01       3.276e-06         -0.1553
  46       5.250e-02      -3.467e-01       6.615e-07         -0.2291
  47       2.250e-02      -3.467e-01       3.319e-07         -0.5021
Strip 6
  48       2.325e-01      -2.933e-01       6.956e-09         -0.0309
  49       2.025e-01      -2.933e-01       1.310e-08         -0.0505
  50       1.725e-01      -2.933e-01       9.197e-08         -0.0698
  51       1.425e-01      -2.933e-01       1.051e-06         -0.0914
  52       1.125e-01      -2.933e-01       3.147e-06         -0.1191
  53       8.250e-02      -2.933e-01       3.276e-06         -0.1608
  54       5.250e-02      -2.933e-01       6.615e-07         -0.2361
  55       2.250e-02      -2.933e-01       3.319e-07         -0.5153
Strip 7
  56       2.325e-01      -2.400e-01       6.956e-09         -0.0320
  57       2.025e-01      -2.400e-01       1.310e-08         -0.0522
  58       1.725e-01      -2.400e-01       9.197e-08         -0.0721
  59       1.425e-01      -2.400e-01       1.051e-06         -0.0942
  60       1.125e-01      -2.400e-01       3.147e-06         -0.1225
  61       8.250e-02      -2.400e-01       3.276e-06         -0.1648
  62       5.250e-02      -2.400e-01       6.615e-07         -0.2414
  63       2.250e-02      -2.400e-01       3.319e-07         -0.5252
Strip 8
  64       2.325e-01      -1.867e-01       6.956e-09         -0.0328
  65       2.025e-01      -1.867e-01       1.310e-08         -0.0535
  66       1.725e-01      -1.867e-01       9.197e-08         -0.0737
  67       1.425e-01      -1.867e-01       1.051e-06         -0.0962
  68       1.125e-01      -1.867e-01       3.147e-06         -0.1249
  69       8.250e-02      -1.867e-01       3.276e-06         -0.1678
  70       5.250e-02      -1.867e-01       6.615e-07         -0.2453
  71       2.250e-02      -1.867e-01       3.319e-07         -0.5325
Strip 9
  72       2.325e-01      -1.333e-01       6.956e-09         -0.0334
  73       2.025e-01      -1.333e-01       1.310e-08         -0.0544
  74       1.725e-01      -1.333e-01       9.197e-08         -0.0749
  75       1.425e-01      -1.333e-01       1.051e-06         -0.0976
  76       1.125e-01      -1.333e-01       3.147e-06         -0.1266
  77       8.250e-02      -1.333e-01       3.276e-06         -0.1698
  78       5.250e-02      -1.333e-01       6.615e-07         -0.2480
  79       2.250e-02      -1.333e-01       3.319e-07         -0.5377
Strip 10
  80       2.325e-01      -8.000e-02       6.956e-09         -0.0337
  81       2.025e-01      -8.000e-02       1.310e-08         -0.0550
  82       1.725e-01      -8.000e-02       9.197e-08         -0.0756
  83       1.425e-01      -8.000e-02       1.051e-06         -0.0985
  84       1.125e-01      -8.000e-02       3.147e-06         -0.1277
  85       8.250e-02      -8.000e-02       3.276e-06         -0.1712
  86       5.250e-02      -8.000e-02       6.615e-07         -0.2497
  87       2.250e-02      -8.000e-02       3.319e-07         -0.5410
Strip 11
  88       2.325e-01      -2.667e-02       6.956e-09         -0.0339
  89       2.025e-01      -2.667e-02       1.310e-08         -0.0552
  90       1.725e-01      -2.667e-02       9.197e-08         -0.0760
  91       1.425e-01      -2.667e-02       1.051e-06         -0.0990
  92       1.125e-01      -2.667e-02       3.147e-06         -0.1283
  93       8.250e-02      -2.667e-02       3.276e-06         -0.1718
  94       5.250e-02      -2.667e-02       6.615e-07         -0.2505
  95       2.250e-02      -2.667e-02       3.319e-07         -0.5426
Strip 12
  96       2.325e-01       2.667e-02       6.956e-09         -0.0339
  97       2.025e-01       2.667e-02       1.310e-08         -0.0552
  98       1.725e-01       2.667e-02       9.197e-08         -0.0760
  99       1.425e-01       2.667e-02       1.051e-06         -0.0990
 100       1.125e-01       2.667e-02       3.147e-06         -0.1283
 101       8.250e-02       2.667e-02       3.276e-06         -0.1718
 102       5.250e-02       2.667e-02       6.615e-07         -0.2505
 103       2.250e-02       2.667e-02       3.319e-07         -0.5426
Strip 13
 104       2.325e-01       8.000e-02       6.956e-09         -0.0337
 105       2.025e-01       8.000e-02       1.310e-08         -0.0550
 106       1.725e-01       8.000e-02       9.197e-08         -0.0756
 107       1.425e-01       8.000e-02       1.051e-06         -0.0985
 108       1.125e-01       8.000e-02       3.147e-06         -0.1277
 109       8.250e-02       8.000e-02       3.276e-06         -0.1712
 110       5.250e-02       8.000e-02       6.615e-07         -0.2497
 111       2.250e-02       8.000e-02       3.319e-07         -0.5410
Strip 14
 112       2.325e-01       1.333e-01       6.956e-09         -0.0334
 113       2.025e-01       1.333e-01       1.310e-08         -0.0544
 114       1.725e-01       1.333e-01       9.197e-08         -0.0749
 115       1.425e-01       1.333e-01       1.051e-06         -0.0976
 116       1.125e-01       1.333e-01       3.147e-06         -0.1266
 117       8.250e-02       1.333e-01       3.276e-06         -0.1698
 118       5.250e-02       1.333e-01       6.615e-07         -0.2480
 119       2.250e-02       1.333e-01       3.319e-07         -0.5377
Strip 15
 120       2.325e-01       1.867e-01       6.956e-09         -0.0328
 121       2.025e-01       1.867e-01       1.310e-08         -0.0535
 122       1.725e-01       1.867e-01       9.197e-08         -0.0737
 123       1.425e-01       1.867e-01       1.051e-06         -0.0962
 124       1.125e-01       1.867e-01       3.147e-06         -0.1249
 125       8.250e-02       1.867e-01       3.276e-06         -0.1678
 126       5.250e-02       1.867e-01       6.615e-07         -0.2453
 127       2.250e-02       1.867e-01       3.319e-07         -0.5325
Strip 16
 128       2.325e-01       2.400e-01       6.956e-09         -0.0320
 129       2.025e-01       2.400e-01       1.310e-08         -0.0522
 130       1.725e-01       2.400e-01       9.197e-08         -0.0721
 131       1.425e-01       2.400e-01       1.051e-06         -0.0942
 132       1.125e-01       2.400e-01       3.147e-06         -0.1225
 133       8.250e-02       2.400e-01       3.276e-06         -0.1648
 134       5.250e-02       2.400e-01       6.615e-07         -0.2414
 135       2.250e-02       2.400e-01       3.319e-07         -0.5252
Strip 17
 136       2.325e-01       2.933e-01       6.956e-09         -0.0309
 137       2.025e-01       2.933e-01       1.310e-08         -0.0505
 138       1.725e-01       2.933e-01       9.197e-08         -0.0698
 139       1.425e-01       2.933e-01       1.051e-06         -0.0914
 140       1.125e-01       2.933e-01       3.147e-06         -0.1191
 141       8.250e-02       2.933e-01       3.276e-06         -0.1608
 142       5.250e-02       2.933e-01       6.615e-07         -0.2361
 143       2.250e-02       2.933e-01       3.319e-07         -0.5153
Strip 18
 144       2.325e-01       3.467e-01       6.956e-09         -0.0294
 145       2.025e-01       3.467e-01       1.310e-08         -0.0482
 146       1.725e-01       3.467e-01       9.197e-08         -0.0667
 147       1.425e-01       3.467e-01       1.051e-06         -0.0876
 148       1.125e-01       3.467e-01       3.147e-06         -0.1146
 149       8.250e-02       3.467e-01       3.276e-06         -0.1553
 150       5.250e-02       3.467e-01       6.615e-07         -0.2291
 151       2.250e-02       3.467e-01       3.319e-07         -0.5021
Strip 19
 152       2.325e-01       4.000e-01       6.956e-09         -0.0274
 153       2.025e-01       4.000e-01       1.310e-08         -0.0450
 154       1.725e-01       4.000e-01       9.197e-08         -0.0626
 155       1.425e-01       4.000e-01       1.051e-06         -0.0825
 156       1.125e-01       4.000e-01       3.147e-06         -0.1085
 157       8.250e-02       4.000e-01       3.276e-06         -0.1479
 158       5.250e-02       4.000e-01       6.615e-07         -0.2196
 159       2.250e-02       4.000e-01       3.319e-07         -0.4846
Strip 20
 160       2.325e-01       4.533e-01       6.956e-09         -0.0248
 161       2.025e-01       4.533e-01       1.310e-08         -0.0409
 162       1.725e-01       4.533e-01       9.197e-08         -0.0570
 163       1.425e-01       4.533e-01       1.051e-06         -0.0756
 164       1.125e-01       4.533e-01       3.147e-06         -0.1001
 165       8.250e-02       4.533e-01       3.276e-06         -0.1377
 166       5.250e-02       4.533e-01       6.615e-07         -0.2066
 167       2.250e-02       4.533e-01       3.319e-07         -0.4609
Strip 21
 168       2.325e-01       5.067e-01       6.956e-09         -0.0214
 169       2.025e-01       5.067e-01       1.310e-08         -0.0353
 170       1.725e-01       5.067e-01       9.197e-08         -0.0495
 171       1.425e-01       5.067e-01       1.051e-06         -0.0660
 172       1.125e-01       5.067e-01       3.147e-06         -0.0882
 173       8.250e-02       5.067e-01       3.276e-06         -0.1233
 174       5.250e-02       5.067e-01       6.615e-07         -0.1881
 175       2.250e-02       5.067e-01       3.319e-07         -0.4280
Strip 22
 176       2.325e-01       5.600e-01       6.956e-09         -0.0169
 177       2.025e-01       5.600e-01       1.310e-08         -0.0279
 178       1.725e-01       5.600e-01       9.197e-08         -0.0392
 179       1.425e-01       5.600e-01       1.051e-06         -0.0525
 180       1.125e-01       5.600e-01       3.147e-06         -0.0711
 181       8.250e-02       5.600e-01       3.276e-06         -0.1016
 182       5.250e-02       5.600e-01       6.615e-07         -0.1599
 183       2.250e-02       5.600e-01       3.319e-07         -0.3789
Strip 23
 184       2.325e-01       6.133e-01       6.956e-09         -0.0111
 185       2.025e-01       6.133e-01       1.310e-08         -0.0179
 186       1.725e-01       6.133e-01       9.197e-08         -0.0249
 187       1.425e-01       6.133e-01       1.051e-06         -0.0332
 188       1.125e-01       6.133e-01       3.147e-06         -0.0452
 189       8.250e-02       6.133e-01       3.276e-06         -0.0663
 190       5.250e-02       6.133e-01       6.615e-07         -0.1102
 191       2.250e-02       6.133e-01       3.319e-07         -0.2921
Strip 24
 192       0.000e+00       0.000e+00       0.000e+00          0.4513
 193       0.000e+00       0.000e+00       0.000e+00          0.7324
 194       0.000e+00       0.000e+00       0.000e+00          1.0197
 195       0.000e+00       0.000e+00       0.000e+00          1.3535
 196       0.000e+00       0.000e+00       0.000e+00          1.8381
 197       0.000e+00       0.000e+00       0.000e+00          2.7078
 198       0.000e+00       0.000e+00       0.000e+00          4.4992
 199       0.000e+00       0.000e+00       0.000e+00         11.9219










