XFLR5 v6.02 Beta

NAC642A015 Wing
T1-54.4 m/s-VLM1-x0.000mm
QInf  =   54.400000 m/s
Alpha =    5.500000
Beta  =    0.000°
Phi   =    0.000°
Ctrl  =   18.000
CL    =    0.396780
Cy    =    0.000000
Cd    =    0.015962     ICd   =    0.009176     PCd   =    0.006785
Cl   = -1.70956e-18
Cm   =  -0.0943824
ICn   =   -0.000000     PCn   =   -0.000000 
XCP   =    0.057353     YCP   =   -0.000000 
XNP   =    0.000000
Bend. =   28.845354

NAC642A015 Wing
  y-span        Chord      Ai         Cl        PCd          ICd        CmGeom      CmAirf      XTrtop    XTrBot      XCP       BM
   -0.6133     0.2400    -4.038    0.205047    0.006479    0.007286   -0.041524    0.009851     0.6078    0.6996    0.2021    0.0000
   -0.5600     0.2400    -3.649    0.289522    0.006550    0.009289   -0.063288    0.009204     0.5768    0.7211    0.2183    0.2543
   -0.5067     0.2400    -3.314    0.341586    0.006611    0.009945   -0.077917    0.007563     0.5558    0.7345    0.2279    0.8674
   -0.4533     0.2400    -3.032    0.377221    0.006699    0.010043   -0.088271    0.006081     0.5375    0.7440    0.2339    1.9036
   -0.4000     0.2400    -2.801    0.402832    0.006763    0.009902   -0.095794    0.004925     0.5242    0.7508    0.2378    3.4068
   -0.3467     0.2400    -2.615    0.421728    0.006809    0.009673   -0.101351    0.004059     0.5144    0.7558    0.2404    5.4085
   -0.2933     0.2400    -2.467    0.435840    0.006844    0.009427   -0.105487    0.003423     0.5071    0.7596    0.2421    7.9320
   -0.2400     0.2400    -2.351    0.446368    0.006871    0.009200   -0.108560    0.002960     0.5016    0.7624    0.2434   10.9945
   -0.1867     0.2400    -2.264    0.454089    0.006902    0.009009   -0.110803    0.002629     0.4954    0.7646    0.2442   14.6090
   -0.1333     0.2400    -2.201    0.459512    0.006944    0.008863   -0.112372    0.002402     0.4873    0.7662    0.2448   18.7850
   -0.0800     0.2400    -2.160    0.462965    0.006971    0.008764   -0.113369    0.002260     0.4821    0.7673    0.2451   23.5290
   -0.0267     0.2400    -2.140    0.464646    0.006984    0.008714   -0.113853    0.002191     0.4796    0.7678    0.2453   28.8454
    0.0267     0.2400    -2.140    0.464646    0.006984    0.008714   -0.113853    0.002191     0.4796    0.7678    0.2453   28.8454
    0.0800     0.2400    -2.160    0.462965    0.006971    0.008764   -0.113369    0.002260     0.4821    0.7673    0.2451   23.5290
    0.1333     0.2400    -2.201    0.459512    0.006944    0.008863   -0.112372    0.002402     0.4873    0.7662    0.2448   18.7850
    0.1867     0.2400    -2.264    0.454089    0.006902    0.009009   -0.110803    0.002629     0.4954    0.7646    0.2442   14.6090
    0.2400     0.2400    -2.351    0.446368    0.006871    0.009200   -0.108560    0.002960     0.5016    0.7624    0.2434   10.9945
    0.2933     0.2400    -2.467    0.435840    0.006844    0.009427   -0.105487    0.003423     0.5071    0.7596    0.2421    7.9320
    0.3467     0.2400    -2.615    0.421728    0.006809    0.009673   -0.101351    0.004059     0.5144    0.7558    0.2404    5.4085
    0.4000     0.2400    -2.801    0.402832    0.006763    0.009902   -0.095794    0.004925     0.5242    0.7508    0.2378    3.4068
    0.4533     0.2400    -3.032    0.377221    0.006699    0.010043   -0.088271    0.006081     0.5375    0.7440    0.2339    1.9036
    0.5067     0.2400    -3.314    0.341586    0.006611    0.009945   -0.077917    0.007563     0.5558    0.7345    0.2279    0.8674
    0.5600     0.2400    -3.649    0.289522    0.006550    0.009289   -0.063288    0.009204     0.5768    0.7211    0.2183    0.2543
    0.6133     0.2400    -4.038    0.205047    0.006479    0.007286   -0.041524    0.009851     0.6078    0.6996    0.2021    0.0000


Wing Cp Coefficients
 Panel     CtrlPt.x        CtrlPt.y        CtrlPt.z             Cp
NAC642A015 WingCp Coefficients
Strip 1
   8       2.325e-01      -5.600e-01       6.956e-09          0.0463
   9       2.025e-01      -5.600e-01       1.310e-08          0.0760
  10       1.725e-01      -5.600e-01       9.197e-08          0.1066
  11       1.425e-01      -5.600e-01       1.051e-06          0.1443
  12       1.125e-01      -5.600e-01       3.147e-06          0.1962
  13       8.250e-02      -5.600e-01       3.276e-06          0.2771
  14       5.250e-02      -5.600e-01       6.615e-07          0.4373
  15       2.250e-02      -5.600e-01       3.319e-07          1.0360
Strip 2
  16       2.325e-01      -5.067e-01       6.956e-09          0.0585
  17       2.025e-01      -5.067e-01       1.310e-08          0.0963
  18       1.725e-01      -5.067e-01       9.197e-08          0.1348
  19       1.425e-01      -5.067e-01       1.051e-06          0.1812
  20       1.125e-01      -5.067e-01       3.147e-06          0.2432
  21       8.250e-02      -5.067e-01       3.276e-06          0.3365
  22       5.250e-02      -5.067e-01       6.615e-07          0.5144
  23       2.250e-02      -5.067e-01       3.319e-07          1.1705
Strip 3
  24       2.325e-01      -4.533e-01       6.956e-09          0.0678
  25       2.025e-01      -4.533e-01       1.310e-08          0.1115
  26       1.725e-01      -4.533e-01       9.197e-08          0.1555
  27       1.425e-01      -4.533e-01       1.051e-06          0.2074
  28       1.125e-01      -4.533e-01       3.147e-06          0.2755
  29       8.250e-02      -4.533e-01       3.276e-06          0.3761
  30       5.250e-02      -4.533e-01       6.615e-07          0.5649
  31       2.250e-02      -4.533e-01       3.319e-07          1.2605
Strip 4
  32       2.325e-01      -4.000e-01       6.956e-09          0.0750
  33       2.025e-01      -4.000e-01       1.310e-08          0.1229
  34       1.725e-01      -4.000e-01       9.197e-08          0.1707
  35       1.425e-01      -4.000e-01       1.051e-06          0.2264
  36       1.125e-01      -4.000e-01       3.147e-06          0.2985
  37       8.250e-02      -4.000e-01       3.276e-06          0.4039
  38       5.250e-02      -4.000e-01       6.615e-07          0.6005
  39       2.250e-02      -4.000e-01       3.319e-07          1.3251
Strip 5
  40       2.325e-01      -3.467e-01       6.956e-09          0.0803
  41       2.025e-01      -3.467e-01       1.310e-08          0.1314
  42       1.725e-01      -3.467e-01       9.197e-08          0.1820
  43       1.425e-01      -3.467e-01       1.051e-06          0.2404
  44       1.125e-01      -3.467e-01       3.147e-06          0.3153
  45       8.250e-02      -3.467e-01       3.276e-06          0.4241
  46       5.250e-02      -3.467e-01       6.615e-07          0.6265
  47       2.250e-02      -3.467e-01       3.319e-07          1.3731
Strip 6
  48       2.325e-01      -2.933e-01       6.956e-09          0.0844
  49       2.025e-01      -2.933e-01       1.310e-08          0.1378
  50       1.725e-01      -2.933e-01       9.197e-08          0.1904
  51       1.425e-01      -2.933e-01       1.051e-06          0.2507
  52       1.125e-01      -2.933e-01       3.147e-06          0.3277
  53       8.250e-02      -2.933e-01       3.276e-06          0.4391
  54       5.250e-02      -2.933e-01       6.615e-07          0.6458
  55       2.250e-02      -2.933e-01       3.319e-07          1.4092
Strip 7
  56       2.325e-01      -2.400e-01       6.956e-09          0.0874
  57       2.025e-01      -2.400e-01       1.310e-08          0.1426
  58       1.725e-01      -2.400e-01       9.197e-08          0.1966
  59       1.425e-01      -2.400e-01       1.051e-06          0.2584
  60       1.125e-01      -2.400e-01       3.147e-06          0.3369
  61       8.250e-02      -2.400e-01       3.276e-06          0.4502
  62       5.250e-02      -2.400e-01       6.615e-07          0.6602
  63       2.250e-02      -2.400e-01       3.319e-07          1.4363
Strip 8
  64       2.325e-01      -1.867e-01       6.956e-09          0.0897
  65       2.025e-01      -1.867e-01       1.310e-08          0.1461
  66       1.725e-01      -1.867e-01       9.197e-08          0.2012
  67       1.425e-01      -1.867e-01       1.051e-06          0.2640
  68       1.125e-01      -1.867e-01       3.147e-06          0.3436
  69       8.250e-02      -1.867e-01       3.276e-06          0.4583
  70       5.250e-02      -1.867e-01       6.615e-07          0.6707
  71       2.250e-02      -1.867e-01       3.319e-07          1.4563
Strip 9
  72       2.325e-01      -1.333e-01       6.956e-09          0.0912
  73       2.025e-01      -1.333e-01       1.310e-08          0.1485
  74       1.725e-01      -1.333e-01       9.197e-08          0.2043
  75       1.425e-01      -1.333e-01       1.051e-06          0.2679
  76       1.125e-01      -1.333e-01       3.147e-06          0.3482
  77       8.250e-02      -1.333e-01       3.276e-06          0.4640
  78       5.250e-02      -1.333e-01       6.615e-07          0.6782
  79       2.250e-02      -1.333e-01       3.319e-07          1.4704
Strip 10
  80       2.325e-01      -8.000e-02       6.956e-09          0.0922
  81       2.025e-01      -8.000e-02       1.310e-08          0.1501
  82       1.725e-01      -8.000e-02       9.197e-08          0.2064
  83       1.425e-01      -8.000e-02       1.051e-06          0.2703
  84       1.125e-01      -8.000e-02       3.147e-06          0.3512
  85       8.250e-02      -8.000e-02       3.276e-06          0.4676
  86       5.250e-02      -8.000e-02       6.615e-07          0.6829
  87       2.250e-02      -8.000e-02       3.319e-07          1.4795
Strip 11
  88       2.325e-01      -2.667e-02       6.956e-09          0.0927
  89       2.025e-01      -2.667e-02       1.310e-08          0.1508
  90       1.725e-01      -2.667e-02       9.197e-08          0.2073
  91       1.425e-01      -2.667e-02       1.051e-06          0.2715
  92       1.125e-01      -2.667e-02       3.147e-06          0.3527
  93       8.250e-02      -2.667e-02       3.276e-06          0.4693
  94       5.250e-02      -2.667e-02       6.615e-07          0.6852
  95       2.250e-02      -2.667e-02       3.319e-07          1.4839
Strip 12
  96       2.325e-01       2.667e-02       6.956e-09          0.0927
  97       2.025e-01       2.667e-02       1.310e-08          0.1508
  98       1.725e-01       2.667e-02       9.197e-08          0.2073
  99       1.425e-01       2.667e-02       1.051e-06          0.2715
 100       1.125e-01       2.667e-02       3.147e-06          0.3527
 101       8.250e-02       2.667e-02       3.276e-06          0.4693
 102       5.250e-02       2.667e-02       6.615e-07          0.6852
 103       2.250e-02       2.667e-02       3.319e-07          1.4839
Strip 13
 104       2.325e-01       8.000e-02       6.956e-09          0.0922
 105       2.025e-01       8.000e-02       1.310e-08          0.1501
 106       1.725e-01       8.000e-02       9.197e-08          0.2064
 107       1.425e-01       8.000e-02       1.051e-06          0.2703
 108       1.125e-01       8.000e-02       3.147e-06          0.3512
 109       8.250e-02       8.000e-02       3.276e-06          0.4676
 110       5.250e-02       8.000e-02       6.615e-07          0.6829
 111       2.250e-02       8.000e-02       3.319e-07          1.4795
Strip 14
 112       2.325e-01       1.333e-01       6.956e-09          0.0912
 113       2.025e-01       1.333e-01       1.310e-08          0.1485
 114       1.725e-01       1.333e-01       9.197e-08          0.2043
 115       1.425e-01       1.333e-01       1.051e-06          0.2679
 116       1.125e-01       1.333e-01       3.147e-06          0.3482
 117       8.250e-02       1.333e-01       3.276e-06          0.4640
 118       5.250e-02       1.333e-01       6.615e-07          0.6782
 119       2.250e-02       1.333e-01       3.319e-07          1.4704
Strip 15
 120       2.325e-01       1.867e-01       6.956e-09          0.0897
 121       2.025e-01       1.867e-01       1.310e-08          0.1461
 122       1.725e-01       1.867e-01       9.197e-08          0.2012
 123       1.425e-01       1.867e-01       1.051e-06          0.2640
 124       1.125e-01       1.867e-01       3.147e-06          0.3436
 125       8.250e-02       1.867e-01       3.276e-06          0.4583
 126       5.250e-02       1.867e-01       6.615e-07          0.6707
 127       2.250e-02       1.867e-01       3.319e-07          1.4563
Strip 16
 128       2.325e-01       2.400e-01       6.956e-09          0.0874
 129       2.025e-01       2.400e-01       1.310e-08          0.1426
 130       1.725e-01       2.400e-01       9.197e-08          0.1966
 131       1.425e-01       2.400e-01       1.051e-06          0.2584
 132       1.125e-01       2.400e-01       3.147e-06          0.3369
 133       8.250e-02       2.400e-01       3.276e-06          0.4502
 134       5.250e-02       2.400e-01       6.615e-07          0.6602
 135       2.250e-02       2.400e-01       3.319e-07          1.4363
Strip 17
 136       2.325e-01       2.933e-01       6.956e-09          0.0844
 137       2.025e-01       2.933e-01       1.310e-08          0.1378
 138       1.725e-01       2.933e-01       9.197e-08          0.1904
 139       1.425e-01       2.933e-01       1.051e-06          0.2507
 140       1.125e-01       2.933e-01       3.147e-06          0.3277
 141       8.250e-02       2.933e-01       3.276e-06          0.4391
 142       5.250e-02       2.933e-01       6.615e-07          0.6458
 143       2.250e-02       2.933e-01       3.319e-07          1.4092
Strip 18
 144       2.325e-01       3.467e-01       6.956e-09          0.0803
 145       2.025e-01       3.467e-01       1.310e-08          0.1314
 146       1.725e-01       3.467e-01       9.197e-08          0.1820
 147       1.425e-01       3.467e-01       1.051e-06          0.2404
 148       1.125e-01       3.467e-01       3.147e-06          0.3153
 149       8.250e-02       3.467e-01       3.276e-06          0.4241
 150       5.250e-02       3.467e-01       6.615e-07          0.6265
 151       2.250e-02       3.467e-01       3.319e-07          1.3731
Strip 19
 152       2.325e-01       4.000e-01       6.956e-09          0.0750
 153       2.025e-01       4.000e-01       1.310e-08          0.1229
 154       1.725e-01       4.000e-01       9.197e-08          0.1707
 155       1.425e-01       4.000e-01       1.051e-06          0.2264
 156       1.125e-01       4.000e-01       3.147e-06          0.2985
 157       8.250e-02       4.000e-01       3.276e-06          0.4039
 158       5.250e-02       4.000e-01       6.615e-07          0.6005
 159       2.250e-02       4.000e-01       3.319e-07          1.3251
Strip 20
 160       2.325e-01       4.533e-01       6.956e-09          0.0678
 161       2.025e-01       4.533e-01       1.310e-08          0.1115
 162       1.725e-01       4.533e-01       9.197e-08          0.1555
 163       1.425e-01       4.533e-01       1.051e-06          0.2074
 164       1.125e-01       4.533e-01       3.147e-06          0.2755
 165       8.250e-02       4.533e-01       3.276e-06          0.3761
 166       5.250e-02       4.533e-01       6.615e-07          0.5649
 167       2.250e-02       4.533e-01       3.319e-07          1.2605
Strip 21
 168       2.325e-01       5.067e-01       6.956e-09          0.0585
 169       2.025e-01       5.067e-01       1.310e-08          0.0963
 170       1.725e-01       5.067e-01       9.197e-08          0.1348
 171       1.425e-01       5.067e-01       1.051e-06          0.1812
 172       1.125e-01       5.067e-01       3.147e-06          0.2432
 173       8.250e-02       5.067e-01       3.276e-06          0.3365
 174       5.250e-02       5.067e-01       6.615e-07          0.5144
 175       2.250e-02       5.067e-01       3.319e-07          1.1705
Strip 22
 176       2.325e-01       5.600e-01       6.956e-09          0.0463
 177       2.025e-01       5.600e-01       1.310e-08          0.0760
 178       1.725e-01       5.600e-01       9.197e-08          0.1066
 179       1.425e-01       5.600e-01       1.051e-06          0.1443
 180       1.125e-01       5.600e-01       3.147e-06          0.1962
 181       8.250e-02       5.600e-01       3.276e-06          0.2771
 182       5.250e-02       5.600e-01       6.615e-07          0.4373
 183       2.250e-02       5.600e-01       3.319e-07          1.0360
Strip 23
 184       2.325e-01       6.133e-01       6.956e-09          0.0302
 185       2.025e-01       6.133e-01       1.310e-08          0.0487
 186       1.725e-01       6.133e-01       9.197e-08          0.0677
 187       1.425e-01       6.133e-01       1.051e-06          0.0915
 188       1.125e-01       6.133e-01       3.147e-06          0.1253
 189       8.250e-02       6.133e-01       3.276e-06          0.1806
 190       5.250e-02       6.133e-01       6.615e-07          0.3014
 191       2.250e-02       6.133e-01       3.319e-07          0.7986
Strip 24
 192       0.000e+00       0.000e+00       0.000e+00         -1.7893
 193       0.000e+00       0.000e+00       0.000e+00         -2.8877
 194       0.000e+00       0.000e+00       0.000e+00         -4.0133
 195       0.000e+00       0.000e+00       0.000e+00         -5.4246
 196       0.000e+00       0.000e+00       0.000e+00         -7.4226
 197       0.000e+00       0.000e+00       0.000e+00        -10.7069
 198       0.000e+00       0.000e+00       0.000e+00        -17.8642
 199       0.000e+00       0.000e+00       0.000e+00        -47.3408










