XFLR5 v6.02 Beta

NAC642A015 Wing
T1-54.4 m/s-VLM1-x0.000mm
QInf  =   54.400000 m/s
Alpha =    1.500000
Beta  =    0.000°
Phi   =    0.000°
Ctrl  =   18.000
CL    =    0.108830
Cy    =    0.000000
Cd    =    0.007153     ICd   =    0.000688     PCd   =    0.006465
Cl   = -6.23011e-19
Cm   =   -0.025896
ICn   =   -0.000000     PCn   =    0.000000 
XCP   =    0.057127     YCP   =    0.000000 
XNP   =    0.000000
Bend. =    7.913068

NAC642A015 Wing
  y-span        Chord      Ai         Cl        PCd          ICd        CmGeom      CmAirf      XTrtop    XTrBot      XCP       BM
   -0.6133     0.2400    -1.109    0.056364    0.006406    0.000546   -0.011394    0.002700     0.6421    0.6659    0.2021    0.0000
   -0.5600     0.2400    -1.002    0.079537    0.006435    0.000696   -0.017365    0.002521     0.6372    0.6709    0.2183    0.0698
   -0.5067     0.2400    -0.910    0.093791    0.006455    0.000745   -0.021379    0.002071     0.6342    0.6740    0.2279    0.2379
   -0.4533     0.2400    -0.833    0.103530    0.006468    0.000753   -0.024220    0.001664     0.6321    0.6761    0.2339    0.5222
   -0.4000     0.2400    -0.769    0.110519    0.006477    0.000742   -0.026284    0.001346     0.6306    0.6776    0.2378    0.9346
   -0.3467     0.2400    -0.718    0.115670    0.006482    0.000725   -0.027808    0.001109     0.6295    0.6787    0.2404    1.4837
   -0.2933     0.2400    -0.677    0.119512    0.006480    0.000706   -0.028943    0.000934     0.6287    0.6796    0.2422    2.1760
   -0.2400     0.2400    -0.645    0.122377    0.006478    0.000689   -0.029785    0.000807     0.6282    0.6803    0.2434    3.0161
   -0.1867     0.2400    -0.621    0.124477    0.006477    0.000675   -0.030401    0.000717     0.6277    0.6808    0.2442    4.0076
   -0.1333     0.2400    -0.604    0.125951    0.006476    0.000664   -0.030831    0.000654     0.6274    0.6812    0.2448    5.1532
   -0.0800     0.2400    -0.593    0.126889    0.006475    0.000657   -0.031105    0.000615     0.6272    0.6814    0.2452    6.4546
   -0.0267     0.2400    -0.587    0.127346    0.006475    0.000653   -0.031238    0.000597     0.6271    0.6815    0.2453    7.9131
    0.0267     0.2400    -0.587    0.127346    0.006475    0.000653   -0.031238    0.000597     0.6271    0.6815    0.2453    7.9131
    0.0800     0.2400    -0.593    0.126889    0.006475    0.000657   -0.031105    0.000615     0.6272    0.6814    0.2452    6.4546
    0.1333     0.2400    -0.604    0.125951    0.006476    0.000664   -0.030831    0.000654     0.6274    0.6812    0.2448    5.1532
    0.1867     0.2400    -0.621    0.124477    0.006477    0.000675   -0.030401    0.000717     0.6277    0.6808    0.2442    4.0076
    0.2400     0.2400    -0.645    0.122377    0.006478    0.000689   -0.029785    0.000807     0.6282    0.6803    0.2434    3.0161
    0.2933     0.2400    -0.677    0.119512    0.006480    0.000706   -0.028943    0.000934     0.6287    0.6796    0.2422    2.1760
    0.3467     0.2400    -0.718    0.115670    0.006482    0.000725   -0.027808    0.001109     0.6295    0.6787    0.2404    1.4837
    0.4000     0.2400    -0.769    0.110519    0.006477    0.000742   -0.026284    0.001346     0.6306    0.6776    0.2378    0.9346
    0.4533     0.2400    -0.833    0.103530    0.006468    0.000753   -0.024220    0.001664     0.6321    0.6761    0.2339    0.5222
    0.5067     0.2400    -0.910    0.093791    0.006455    0.000745   -0.021379    0.002071     0.6342    0.6740    0.2279    0.2379
    0.5600     0.2400    -1.002    0.079537    0.006435    0.000696   -0.017365    0.002521     0.6372    0.6709    0.2183    0.0698
    0.6133     0.2400    -1.109    0.056364    0.006406    0.000546   -0.011394    0.002700     0.6421    0.6659    0.2021    0.0000


Wing Cp Coefficients
 Panel     CtrlPt.x        CtrlPt.y        CtrlPt.z             Cp
NAC642A015 WingCp Coefficients
Strip 1
   8       2.325e-01      -5.600e-01       6.956e-09          0.0127
   9       2.025e-01      -5.600e-01       1.310e-08          0.0208
  10       1.725e-01      -5.600e-01       9.197e-08          0.0291
  11       1.425e-01      -5.600e-01       1.051e-06          0.0397
  12       1.125e-01      -5.600e-01       3.147e-06          0.0541
  13       8.250e-02      -5.600e-01       3.276e-06          0.0759
  14       5.250e-02      -5.600e-01       6.615e-07          0.1199
  15       2.250e-02      -5.600e-01       3.319e-07          0.2841
Strip 2
  16       2.325e-01      -5.067e-01       6.956e-09          0.0160
  17       2.025e-01      -5.067e-01       1.310e-08          0.0263
  18       1.725e-01      -5.067e-01       9.197e-08          0.0369
  19       1.425e-01      -5.067e-01       1.051e-06          0.0498
  20       1.125e-01      -5.067e-01       3.147e-06          0.0671
  21       8.250e-02      -5.067e-01       3.276e-06          0.0922
  22       5.250e-02      -5.067e-01       6.615e-07          0.1411
  23       2.250e-02      -5.067e-01       3.319e-07          0.3210
Strip 3
  24       2.325e-01      -4.533e-01       6.956e-09          0.0186
  25       2.025e-01      -4.533e-01       1.310e-08          0.0305
  26       1.725e-01      -4.533e-01       9.197e-08          0.0425
  27       1.425e-01      -4.533e-01       1.051e-06          0.0571
  28       1.125e-01      -4.533e-01       3.147e-06          0.0759
  29       8.250e-02      -4.533e-01       3.276e-06          0.1030
  30       5.250e-02      -4.533e-01       6.615e-07          0.1549
  31       2.250e-02      -4.533e-01       3.319e-07          0.3457
Strip 4
  32       2.325e-01      -4.000e-01       6.956e-09          0.0205
  33       2.025e-01      -4.000e-01       1.310e-08          0.0336
  34       1.725e-01      -4.000e-01       9.197e-08          0.0467
  35       1.425e-01      -4.000e-01       1.051e-06          0.0623
  36       1.125e-01      -4.000e-01       3.147e-06          0.0822
  37       8.250e-02      -4.000e-01       3.276e-06          0.1107
  38       5.250e-02      -4.000e-01       6.615e-07          0.1647
  39       2.250e-02      -4.000e-01       3.319e-07          0.3634
Strip 5
  40       2.325e-01      -3.467e-01       6.956e-09          0.0220
  41       2.025e-01      -3.467e-01       1.310e-08          0.0360
  42       1.725e-01      -3.467e-01       9.197e-08          0.0498
  43       1.425e-01      -3.467e-01       1.051e-06          0.0661
  44       1.125e-01      -3.467e-01       3.147e-06          0.0868
  45       8.250e-02      -3.467e-01       3.276e-06          0.1162
  46       5.250e-02      -3.467e-01       6.615e-07          0.1718
  47       2.250e-02      -3.467e-01       3.319e-07          0.3766
Strip 6
  48       2.325e-01      -2.933e-01       6.956e-09          0.0231
  49       2.025e-01      -2.933e-01       1.310e-08          0.0377
  50       1.725e-01      -2.933e-01       9.197e-08          0.0521
  51       1.425e-01      -2.933e-01       1.051e-06          0.0689
  52       1.125e-01      -2.933e-01       3.147e-06          0.0902
  53       8.250e-02      -2.933e-01       3.276e-06          0.1203
  54       5.250e-02      -2.933e-01       6.615e-07          0.1771
  55       2.250e-02      -2.933e-01       3.319e-07          0.3865
Strip 7
  56       2.325e-01      -2.400e-01       6.956e-09          0.0240
  57       2.025e-01      -2.400e-01       1.310e-08          0.0391
  58       1.725e-01      -2.400e-01       9.197e-08          0.0538
  59       1.425e-01      -2.400e-01       1.051e-06          0.0710
  60       1.125e-01      -2.400e-01       3.147e-06          0.0928
  61       8.250e-02      -2.400e-01       3.276e-06          0.1234
  62       5.250e-02      -2.400e-01       6.615e-07          0.1811
  63       2.250e-02      -2.400e-01       3.319e-07          0.3939
Strip 8
  64       2.325e-01      -1.867e-01       6.956e-09          0.0246
  65       2.025e-01      -1.867e-01       1.310e-08          0.0400
  66       1.725e-01      -1.867e-01       9.197e-08          0.0551
  67       1.425e-01      -1.867e-01       1.051e-06          0.0726
  68       1.125e-01      -1.867e-01       3.147e-06          0.0946
  69       8.250e-02      -1.867e-01       3.276e-06          0.1256
  70       5.250e-02      -1.867e-01       6.615e-07          0.1840
  71       2.250e-02      -1.867e-01       3.319e-07          0.3994
Strip 9
  72       2.325e-01      -1.333e-01       6.956e-09          0.0250
  73       2.025e-01      -1.333e-01       1.310e-08          0.0407
  74       1.725e-01      -1.333e-01       9.197e-08          0.0560
  75       1.425e-01      -1.333e-01       1.051e-06          0.0736
  76       1.125e-01      -1.333e-01       3.147e-06          0.0959
  77       8.250e-02      -1.333e-01       3.276e-06          0.1271
  78       5.250e-02      -1.333e-01       6.615e-07          0.1860
  79       2.250e-02      -1.333e-01       3.319e-07          0.4033
Strip 10
  80       2.325e-01      -8.000e-02       6.956e-09          0.0253
  81       2.025e-01      -8.000e-02       1.310e-08          0.0411
  82       1.725e-01      -8.000e-02       9.197e-08          0.0565
  83       1.425e-01      -8.000e-02       1.051e-06          0.0743
  84       1.125e-01      -8.000e-02       3.147e-06          0.0967
  85       8.250e-02      -8.000e-02       3.276e-06          0.1281
  86       5.250e-02      -8.000e-02       6.615e-07          0.1873
  87       2.250e-02      -8.000e-02       3.319e-07          0.4057
Strip 11
  88       2.325e-01      -2.667e-02       6.956e-09          0.0254
  89       2.025e-01      -2.667e-02       1.310e-08          0.0413
  90       1.725e-01      -2.667e-02       9.197e-08          0.0568
  91       1.425e-01      -2.667e-02       1.051e-06          0.0746
  92       1.125e-01      -2.667e-02       3.147e-06          0.0971
  93       8.250e-02      -2.667e-02       3.276e-06          0.1286
  94       5.250e-02      -2.667e-02       6.615e-07          0.1879
  95       2.250e-02      -2.667e-02       3.319e-07          0.4070
Strip 12
  96       2.325e-01       2.667e-02       6.956e-09          0.0254
  97       2.025e-01       2.667e-02       1.310e-08          0.0413
  98       1.725e-01       2.667e-02       9.197e-08          0.0568
  99       1.425e-01       2.667e-02       1.051e-06          0.0746
 100       1.125e-01       2.667e-02       3.147e-06          0.0971
 101       8.250e-02       2.667e-02       3.276e-06          0.1286
 102       5.250e-02       2.667e-02       6.615e-07          0.1879
 103       2.250e-02       2.667e-02       3.319e-07          0.4070
Strip 13
 104       2.325e-01       8.000e-02       6.956e-09          0.0253
 105       2.025e-01       8.000e-02       1.310e-08          0.0411
 106       1.725e-01       8.000e-02       9.197e-08          0.0565
 107       1.425e-01       8.000e-02       1.051e-06          0.0743
 108       1.125e-01       8.000e-02       3.147e-06          0.0967
 109       8.250e-02       8.000e-02       3.276e-06          0.1281
 110       5.250e-02       8.000e-02       6.615e-07          0.1873
 111       2.250e-02       8.000e-02       3.319e-07          0.4057
Strip 14
 112       2.325e-01       1.333e-01       6.956e-09          0.0250
 113       2.025e-01       1.333e-01       1.310e-08          0.0407
 114       1.725e-01       1.333e-01       9.197e-08          0.0560
 115       1.425e-01       1.333e-01       1.051e-06          0.0736
 116       1.125e-01       1.333e-01       3.147e-06          0.0959
 117       8.250e-02       1.333e-01       3.276e-06          0.1271
 118       5.250e-02       1.333e-01       6.615e-07          0.1860
 119       2.250e-02       1.333e-01       3.319e-07          0.4033
Strip 15
 120       2.325e-01       1.867e-01       6.956e-09          0.0246
 121       2.025e-01       1.867e-01       1.310e-08          0.0400
 122       1.725e-01       1.867e-01       9.197e-08          0.0551
 123       1.425e-01       1.867e-01       1.051e-06          0.0726
 124       1.125e-01       1.867e-01       3.147e-06          0.0946
 125       8.250e-02       1.867e-01       3.276e-06          0.1256
 126       5.250e-02       1.867e-01       6.615e-07          0.1840
 127       2.250e-02       1.867e-01       3.319e-07          0.3994
Strip 16
 128       2.325e-01       2.400e-01       6.956e-09          0.0240
 129       2.025e-01       2.400e-01       1.310e-08          0.0391
 130       1.725e-01       2.400e-01       9.197e-08          0.0538
 131       1.425e-01       2.400e-01       1.051e-06          0.0710
 132       1.125e-01       2.400e-01       3.147e-06          0.0928
 133       8.250e-02       2.400e-01       3.276e-06          0.1234
 134       5.250e-02       2.400e-01       6.615e-07          0.1811
 135       2.250e-02       2.400e-01       3.319e-07          0.3939
Strip 17
 136       2.325e-01       2.933e-01       6.956e-09          0.0231
 137       2.025e-01       2.933e-01       1.310e-08          0.0377
 138       1.725e-01       2.933e-01       9.197e-08          0.0521
 139       1.425e-01       2.933e-01       1.051e-06          0.0689
 140       1.125e-01       2.933e-01       3.147e-06          0.0902
 141       8.250e-02       2.933e-01       3.276e-06          0.1203
 142       5.250e-02       2.933e-01       6.615e-07          0.1771
 143       2.250e-02       2.933e-01       3.319e-07          0.3865
Strip 18
 144       2.325e-01       3.467e-01       6.956e-09          0.0220
 145       2.025e-01       3.467e-01       1.310e-08          0.0360
 146       1.725e-01       3.467e-01       9.197e-08          0.0498
 147       1.425e-01       3.467e-01       1.051e-06          0.0661
 148       1.125e-01       3.467e-01       3.147e-06          0.0868
 149       8.250e-02       3.467e-01       3.276e-06          0.1162
 150       5.250e-02       3.467e-01       6.615e-07          0.1718
 151       2.250e-02       3.467e-01       3.319e-07          0.3766
Strip 19
 152       2.325e-01       4.000e-01       6.956e-09          0.0205
 153       2.025e-01       4.000e-01       1.310e-08          0.0336
 154       1.725e-01       4.000e-01       9.197e-08          0.0467
 155       1.425e-01       4.000e-01       1.051e-06          0.0623
 156       1.125e-01       4.000e-01       3.147e-06          0.0822
 157       8.250e-02       4.000e-01       3.276e-06          0.1107
 158       5.250e-02       4.000e-01       6.615e-07          0.1647
 159       2.250e-02       4.000e-01       3.319e-07          0.3634
Strip 20
 160       2.325e-01       4.533e-01       6.956e-09          0.0186
 161       2.025e-01       4.533e-01       1.310e-08          0.0305
 162       1.725e-01       4.533e-01       9.197e-08          0.0425
 163       1.425e-01       4.533e-01       1.051e-06          0.0571
 164       1.125e-01       4.533e-01       3.147e-06          0.0759
 165       8.250e-02       4.533e-01       3.276e-06          0.1030
 166       5.250e-02       4.533e-01       6.615e-07          0.1549
 167       2.250e-02       4.533e-01       3.319e-07          0.3457
Strip 21
 168       2.325e-01       5.067e-01       6.956e-09          0.0160
 169       2.025e-01       5.067e-01       1.310e-08          0.0263
 170       1.725e-01       5.067e-01       9.197e-08          0.0369
 171       1.425e-01       5.067e-01       1.051e-06          0.0498
 172       1.125e-01       5.067e-01       3.147e-06          0.0671
 173       8.250e-02       5.067e-01       3.276e-06          0.0922
 174       5.250e-02       5.067e-01       6.615e-07          0.1411
 175       2.250e-02       5.067e-01       3.319e-07          0.3210
Strip 22
 176       2.325e-01       5.600e-01       6.956e-09          0.0127
 177       2.025e-01       5.600e-01       1.310e-08          0.0208
 178       1.725e-01       5.600e-01       9.197e-08          0.0291
 179       1.425e-01       5.600e-01       1.051e-06          0.0397
 180       1.125e-01       5.600e-01       3.147e-06          0.0541
 181       8.250e-02       5.600e-01       3.276e-06          0.0759
 182       5.250e-02       5.600e-01       6.615e-07          0.1199
 183       2.250e-02       5.600e-01       3.319e-07          0.2841
Strip 23
 184       2.325e-01       6.133e-01       6.956e-09          0.0083
 185       2.025e-01       6.133e-01       1.310e-08          0.0133
 186       1.725e-01       6.133e-01       9.197e-08          0.0185
 187       1.425e-01       6.133e-01       1.051e-06          0.0252
 188       1.125e-01       6.133e-01       3.147e-06          0.0347
 189       8.250e-02       6.133e-01       3.276e-06          0.0494
 190       5.250e-02       6.133e-01       6.615e-07          0.0826
 191       2.250e-02       6.133e-01       3.319e-07          0.2190
Strip 24
 192       0.000e+00       0.000e+00       0.000e+00         -0.5998
 193       0.000e+00       0.000e+00       0.000e+00         -0.9659
 194       0.000e+00       0.000e+00       0.000e+00         -1.3414
 195       0.000e+00       0.000e+00       0.000e+00         -1.8264
 196       0.000e+00       0.000e+00       0.000e+00         -2.5066
 197       0.000e+00       0.000e+00       0.000e+00         -3.5855
 198       0.000e+00       0.000e+00       0.000e+00         -5.9924
 199       0.000e+00       0.000e+00       0.000e+00        -15.8805










