XFLR5 v6.02 Beta

NAC642A015 Wing
T1-54.4 m/s-VLM1-x0.000mm
QInf  =   54.400000 m/s
Alpha =   13.500000
Beta  =    0.000°
Phi   =    0.000°
Ctrl  =   18.000
CL    =    0.945150
Cy    =    0.000000
Cd    =    0.072360     ICd   =    0.053173     PCd   =    0.019187
Cl   = -2.81791e-17
Cm   =   -0.224548
ICn   =   -0.000000     PCn   =   -0.000000 
XCP   =    0.058639     YCP   =   -0.000000 
XNP   =    0.000000
Bend. =   68.629155

NAC642A015 Wing
  y-span        Chord      Ai         Cl        PCd          ICd        CmGeom      CmAirf      XTrtop    XTrBot      XCP       BM
   -0.6133     0.2400    -9.533    0.482549    0.007123    0.042222   -0.098789    0.023443     0.4528    0.7732    0.2021    0.0000
   -0.5600     0.2400    -8.627    0.683659    0.011543    0.053825   -0.150569    0.021906     0.0448    0.8660    0.2182    0.6050
   -0.5067     0.2400    -7.844    0.808946    0.013451    0.057626   -0.185372    0.018002     0.0251    0.9514    0.2279    2.0637
   -0.4533     0.2400    -7.183    0.895509    0.014943    0.058194   -0.210007    0.014477     0.0201    0.9912    0.2339    4.5290
   -0.4000     0.2400    -6.640    0.958210    0.016407    0.057380   -0.227906    0.011725     0.0180    1.0000    0.2378    8.1055
   -0.3467     0.2400    -6.201    1.004765    0.018301    0.056050   -0.241126    0.009667     0.0168    1.0000    0.2404   12.8680
   -0.2933     0.2400    -5.852    1.039704    0.020265    0.054625   -0.250968    0.008152     0.0160    1.0000    0.2421   18.8718
   -0.2400     0.2400    -5.579    1.065870    0.022926    0.053310   -0.258278    0.007050     0.0154    1.0000    0.2434   26.1582
   -0.1867     0.2400    -5.373    1.085116    0.024827    0.052206   -0.263615    0.006263     0.0152    1.0000    0.2442   34.7579
   -0.1333     0.2400    -5.224    1.098663    0.026012    0.051357   -0.267349    0.005722     0.0150    1.0000    0.2448   44.6934
   -0.0800     0.2400    -5.129    1.107301    0.026987    0.050785   -0.269720    0.005385     0.0149    1.0000    0.2451   55.9804
   -0.0267     0.2400    -5.082    1.111509    0.027462    0.050498   -0.270872    0.005222     0.0148    1.0000    0.2453   68.6292
    0.0267     0.2400    -5.082    1.111509    0.027462    0.050498   -0.270872    0.005222     0.0148    1.0000    0.2453   68.6292
    0.0800     0.2400    -5.129    1.107301    0.026987    0.050785   -0.269720    0.005385     0.0149    1.0000    0.2451   55.9804
    0.1333     0.2400    -5.224    1.098663    0.026012    0.051357   -0.267349    0.005722     0.0150    1.0000    0.2448   44.6934
    0.1867     0.2400    -5.373    1.085116    0.024827    0.052206   -0.263615    0.006263     0.0152    1.0000    0.2442   34.7579
    0.2400     0.2400    -5.579    1.065870    0.022926    0.053310   -0.258278    0.007050     0.0154    1.0000    0.2434   26.1582
    0.2933     0.2400    -5.852    1.039704    0.020265    0.054625   -0.250968    0.008152     0.0160    1.0000    0.2421   18.8718
    0.3467     0.2400    -6.201    1.004765    0.018301    0.056050   -0.241126    0.009667     0.0168    1.0000    0.2404   12.8680
    0.4000     0.2400    -6.640    0.958210    0.016407    0.057380   -0.227906    0.011725     0.0180    1.0000    0.2378    8.1055
    0.4533     0.2400    -7.183    0.895509    0.014943    0.058194   -0.210007    0.014477     0.0201    0.9912    0.2339    4.5290
    0.5067     0.2400    -7.844    0.808946    0.013451    0.057626   -0.185372    0.018002     0.0251    0.9514    0.2279    2.0637
    0.5600     0.2400    -8.627    0.683659    0.011543    0.053825   -0.150569    0.021906     0.0448    0.8660    0.2182    0.6050
    0.6133     0.2400    -9.533    0.482549    0.007123    0.042222   -0.098789    0.023443     0.4528    0.7732    0.2021    0.0000


Wing Cp Coefficients
 Panel     CtrlPt.x        CtrlPt.y        CtrlPt.z             Cp
NAC642A015 WingCp Coefficients
Strip 1
   8       2.325e-01      -5.600e-01       6.956e-09          0.1102
   9       2.025e-01      -5.600e-01       1.310e-08          0.1810
  10       1.725e-01      -5.600e-01       9.197e-08          0.2539
  11       1.425e-01      -5.600e-01       1.051e-06          0.3430
  12       1.125e-01      -5.600e-01       3.147e-06          0.4660
  13       8.250e-02      -5.600e-01       3.276e-06          0.6596
  14       5.250e-02      -5.600e-01       6.615e-07          1.0405
  15       2.250e-02      -5.600e-01       3.319e-07          2.4650
Strip 2
  16       2.325e-01      -5.067e-01       6.956e-09          0.1392
  17       2.025e-01      -5.067e-01       1.310e-08          0.2292
  18       1.725e-01      -5.067e-01       9.197e-08          0.3209
  19       1.425e-01      -5.067e-01       1.051e-06          0.4308
  20       1.125e-01      -5.067e-01       3.147e-06          0.5779
  21       8.250e-02      -5.067e-01       3.276e-06          0.8010
  22       5.250e-02      -5.067e-01       6.615e-07          1.2240
  23       2.250e-02      -5.067e-01       3.319e-07          2.7850
Strip 3
  24       2.325e-01      -4.533e-01       6.956e-09          0.1614
  25       2.025e-01      -4.533e-01       1.310e-08          0.2654
  26       1.725e-01      -4.533e-01       9.197e-08          0.3701
  27       1.425e-01      -4.533e-01       1.051e-06          0.4933
  28       1.125e-01      -4.533e-01       3.147e-06          0.6548
  29       8.250e-02      -4.533e-01       3.276e-06          0.8951
  30       5.250e-02      -4.533e-01       6.615e-07          1.3442
  31       2.250e-02      -4.533e-01       3.319e-07          2.9993
Strip 4
  32       2.325e-01      -4.000e-01       6.956e-09          0.1784
  33       2.025e-01      -4.000e-01       1.310e-08          0.2925
  34       1.725e-01      -4.000e-01       9.197e-08          0.4063
  35       1.425e-01      -4.000e-01       1.051e-06          0.5385
  36       1.125e-01      -4.000e-01       3.147e-06          0.7096
  37       8.250e-02      -4.000e-01       3.276e-06          0.9613
  38       5.250e-02      -4.000e-01       6.615e-07          1.4288
  39       2.250e-02      -4.000e-01       3.319e-07          3.1530
Strip 5
  40       2.325e-01      -3.467e-01       6.956e-09          0.1912
  41       2.025e-01      -3.467e-01       1.310e-08          0.3128
  42       1.725e-01      -3.467e-01       9.197e-08          0.4331
  43       1.425e-01      -3.467e-01       1.051e-06          0.5717
  44       1.125e-01      -3.467e-01       3.147e-06          0.7495
  45       8.250e-02      -3.467e-01       3.276e-06          1.0094
  46       5.250e-02      -3.467e-01       6.615e-07          1.4906
  47       2.250e-02      -3.467e-01       3.319e-07          3.2671
Strip 6
  48       2.325e-01      -2.933e-01       6.956e-09          0.2008
  49       2.025e-01      -2.933e-01       1.310e-08          0.3281
  50       1.725e-01      -2.933e-01       9.197e-08          0.4532
  51       1.425e-01      -2.933e-01       1.051e-06          0.5963
  52       1.125e-01      -2.933e-01       3.147e-06          0.7790
  53       8.250e-02      -2.933e-01       3.276e-06          1.0450
  54       5.250e-02      -2.933e-01       6.615e-07          1.5365
  55       2.250e-02      -2.933e-01       3.319e-07          3.3529
Strip 7
  56       2.325e-01      -2.400e-01       6.956e-09          0.2081
  57       2.025e-01      -2.400e-01       1.310e-08          0.3394
  58       1.725e-01      -2.400e-01       9.197e-08          0.4680
  59       1.425e-01      -2.400e-01       1.051e-06          0.6145
  60       1.125e-01      -2.400e-01       3.147e-06          0.8009
  61       8.250e-02      -2.400e-01       3.276e-06          1.0714
  62       5.250e-02      -2.400e-01       6.615e-07          1.5708
  63       2.250e-02      -2.400e-01       3.319e-07          3.4174
Strip 8
  64       2.325e-01      -1.867e-01       6.956e-09          0.2133
  65       2.025e-01      -1.867e-01       1.310e-08          0.3477
  66       1.725e-01      -1.867e-01       9.197e-08          0.4788
  67       1.425e-01      -1.867e-01       1.051e-06          0.6278
  68       1.125e-01      -1.867e-01       3.147e-06          0.8168
  69       8.250e-02      -1.867e-01       3.276e-06          1.0907
  70       5.250e-02      -1.867e-01       6.615e-07          1.5959
  71       2.250e-02      -1.867e-01       3.319e-07          3.4651
Strip 9
  72       2.325e-01      -1.333e-01       6.956e-09          0.2170
  73       2.025e-01      -1.333e-01       1.310e-08          0.3535
  74       1.725e-01      -1.333e-01       9.197e-08          0.4864
  75       1.425e-01      -1.333e-01       1.051e-06          0.6370
  76       1.125e-01      -1.333e-01       3.147e-06          0.8279
  77       8.250e-02      -1.333e-01       3.276e-06          1.1042
  78       5.250e-02      -1.333e-01       6.615e-07          1.6136
  79       2.250e-02      -1.333e-01       3.319e-07          3.4987
Strip 10
  80       2.325e-01      -8.000e-02       6.956e-09          0.2194
  81       2.025e-01      -8.000e-02       1.310e-08          0.3571
  82       1.725e-01      -8.000e-02       9.197e-08          0.4911
  83       1.425e-01      -8.000e-02       1.051e-06          0.6429
  84       1.125e-01      -8.000e-02       3.147e-06          0.8349
  85       8.250e-02      -8.000e-02       3.276e-06          1.1128
  86       5.250e-02      -8.000e-02       6.615e-07          1.6248
  87       2.250e-02      -8.000e-02       3.319e-07          3.5202
Strip 11
  88       2.325e-01      -2.667e-02       6.956e-09          0.2205
  89       2.025e-01      -2.667e-02       1.310e-08          0.3589
  90       1.725e-01      -2.667e-02       9.197e-08          0.4935
  91       1.425e-01      -2.667e-02       1.051e-06          0.6458
  92       1.125e-01      -2.667e-02       3.147e-06          0.8384
  93       8.250e-02      -2.667e-02       3.276e-06          1.1170
  94       5.250e-02      -2.667e-02       6.615e-07          1.6303
  95       2.250e-02      -2.667e-02       3.319e-07          3.5307
Strip 12
  96       2.325e-01       2.667e-02       6.956e-09          0.2205
  97       2.025e-01       2.667e-02       1.310e-08          0.3589
  98       1.725e-01       2.667e-02       9.197e-08          0.4935
  99       1.425e-01       2.667e-02       1.051e-06          0.6458
 100       1.125e-01       2.667e-02       3.147e-06          0.8384
 101       8.250e-02       2.667e-02       3.276e-06          1.1170
 102       5.250e-02       2.667e-02       6.615e-07          1.6303
 103       2.250e-02       2.667e-02       3.319e-07          3.5307
Strip 13
 104       2.325e-01       8.000e-02       6.956e-09          0.2194
 105       2.025e-01       8.000e-02       1.310e-08          0.3571
 106       1.725e-01       8.000e-02       9.197e-08          0.4911
 107       1.425e-01       8.000e-02       1.051e-06          0.6429
 108       1.125e-01       8.000e-02       3.147e-06          0.8349
 109       8.250e-02       8.000e-02       3.276e-06          1.1128
 110       5.250e-02       8.000e-02       6.615e-07          1.6248
 111       2.250e-02       8.000e-02       3.319e-07          3.5202
Strip 14
 112       2.325e-01       1.333e-01       6.956e-09          0.2170
 113       2.025e-01       1.333e-01       1.310e-08          0.3535
 114       1.725e-01       1.333e-01       9.197e-08          0.4864
 115       1.425e-01       1.333e-01       1.051e-06          0.6370
 116       1.125e-01       1.333e-01       3.147e-06          0.8279
 117       8.250e-02       1.333e-01       3.276e-06          1.1042
 118       5.250e-02       1.333e-01       6.615e-07          1.6136
 119       2.250e-02       1.333e-01       3.319e-07          3.4987
Strip 15
 120       2.325e-01       1.867e-01       6.956e-09          0.2133
 121       2.025e-01       1.867e-01       1.310e-08          0.3477
 122       1.725e-01       1.867e-01       9.197e-08          0.4788
 123       1.425e-01       1.867e-01       1.051e-06          0.6278
 124       1.125e-01       1.867e-01       3.147e-06          0.8168
 125       8.250e-02       1.867e-01       3.276e-06          1.0907
 126       5.250e-02       1.867e-01       6.615e-07          1.5959
 127       2.250e-02       1.867e-01       3.319e-07          3.4651
Strip 16
 128       2.325e-01       2.400e-01       6.956e-09          0.2081
 129       2.025e-01       2.400e-01       1.310e-08          0.3394
 130       1.725e-01       2.400e-01       9.197e-08          0.4680
 131       1.425e-01       2.400e-01       1.051e-06          0.6145
 132       1.125e-01       2.400e-01       3.147e-06          0.8009
 133       8.250e-02       2.400e-01       3.276e-06          1.0714
 134       5.250e-02       2.400e-01       6.615e-07          1.5708
 135       2.250e-02       2.400e-01       3.319e-07          3.4174
Strip 17
 136       2.325e-01       2.933e-01       6.956e-09          0.2008
 137       2.025e-01       2.933e-01       1.310e-08          0.3281
 138       1.725e-01       2.933e-01       9.197e-08          0.4532
 139       1.425e-01       2.933e-01       1.051e-06          0.5963
 140       1.125e-01       2.933e-01       3.147e-06          0.7790
 141       8.250e-02       2.933e-01       3.276e-06          1.0450
 142       5.250e-02       2.933e-01       6.615e-07          1.5365
 143       2.250e-02       2.933e-01       3.319e-07          3.3529
Strip 18
 144       2.325e-01       3.467e-01       6.956e-09          0.1912
 145       2.025e-01       3.467e-01       1.310e-08          0.3128
 146       1.725e-01       3.467e-01       9.197e-08          0.4331
 147       1.425e-01       3.467e-01       1.051e-06          0.5717
 148       1.125e-01       3.467e-01       3.147e-06          0.7495
 149       8.250e-02       3.467e-01       3.276e-06          1.0094
 150       5.250e-02       3.467e-01       6.615e-07          1.4906
 151       2.250e-02       3.467e-01       3.319e-07          3.2671
Strip 19
 152       2.325e-01       4.000e-01       6.956e-09          0.1784
 153       2.025e-01       4.000e-01       1.310e-08          0.2925
 154       1.725e-01       4.000e-01       9.197e-08          0.4063
 155       1.425e-01       4.000e-01       1.051e-06          0.5385
 156       1.125e-01       4.000e-01       3.147e-06          0.7096
 157       8.250e-02       4.000e-01       3.276e-06          0.9613
 158       5.250e-02       4.000e-01       6.615e-07          1.4288
 159       2.250e-02       4.000e-01       3.319e-07          3.1530
Strip 20
 160       2.325e-01       4.533e-01       6.956e-09          0.1614
 161       2.025e-01       4.533e-01       1.310e-08          0.2654
 162       1.725e-01       4.533e-01       9.197e-08          0.3701
 163       1.425e-01       4.533e-01       1.051e-06          0.4933
 164       1.125e-01       4.533e-01       3.147e-06          0.6548
 165       8.250e-02       4.533e-01       3.276e-06          0.8951
 166       5.250e-02       4.533e-01       6.615e-07          1.3442
 167       2.250e-02       4.533e-01       3.319e-07          2.9993
Strip 21
 168       2.325e-01       5.067e-01       6.956e-09          0.1392
 169       2.025e-01       5.067e-01       1.310e-08          0.2292
 170       1.725e-01       5.067e-01       9.197e-08          0.3209
 171       1.425e-01       5.067e-01       1.051e-06          0.4308
 172       1.125e-01       5.067e-01       3.147e-06          0.5779
 173       8.250e-02       5.067e-01       3.276e-06          0.8010
 174       5.250e-02       5.067e-01       6.615e-07          1.2240
 175       2.250e-02       5.067e-01       3.319e-07          2.7850
Strip 22
 176       2.325e-01       5.600e-01       6.956e-09          0.1102
 177       2.025e-01       5.600e-01       1.310e-08          0.1810
 178       1.725e-01       5.600e-01       9.197e-08          0.2539
 179       1.425e-01       5.600e-01       1.051e-06          0.3430
 180       1.125e-01       5.600e-01       3.147e-06          0.4660
 181       8.250e-02       5.600e-01       3.276e-06          0.6596
 182       5.250e-02       5.600e-01       6.615e-07          1.0405
 183       2.250e-02       5.600e-01       3.319e-07          2.4650
Strip 23
 184       2.325e-01       6.133e-01       6.956e-09          0.0718
 185       2.025e-01       6.133e-01       1.310e-08          0.1160
 186       1.725e-01       6.133e-01       9.197e-08          0.1613
 187       1.425e-01       6.133e-01       1.051e-06          0.2175
 188       1.125e-01       6.133e-01       3.147e-06          0.2974
 189       8.250e-02       6.133e-01       3.276e-06          0.4300
 190       5.250e-02       6.133e-01       6.615e-07          0.7171
 191       2.250e-02       6.133e-01       3.319e-07          1.9003
Strip 24
 192       0.000e+00       0.000e+00       0.000e+00         -4.0413
 193       0.000e+00       0.000e+00       0.000e+00         -6.5262
 194       0.000e+00       0.000e+00       0.000e+00         -9.0719
 195       0.000e+00       0.000e+00       0.000e+00        -12.2365
 196       0.000e+00       0.000e+00       0.000e+00        -16.7290
 197       0.000e+00       0.000e+00       0.000e+00        -24.1902
 198       0.000e+00       0.000e+00       0.000e+00        -40.3405
 199       0.000e+00       0.000e+00       0.000e+00       -106.9027










