XFLR5 v6.02 Beta

NAC642A015 Wing
T1-54.4 m/s-VLM1-x0.000mm
QInf  =   54.400000 m/s
Alpha =    8.000000
Beta  =    0.000°
Phi   =    0.000°
Ctrl  =   18.000
CL    =    0.573291
Cy    =    0.000000
Cd    =    0.029020     ICd   =    0.019247     PCd   =    0.009773
Cl   = -1.40771e-18
Cm   =   -0.136337
ICn   =    0.000000     PCn   =    0.000000 
XCP   =    0.057636     YCP   =    0.000000 
XNP   =    0.000000
Bend. =   41.668431

NAC642A015 Wing
  y-span        Chord      Ai         Cl        PCd          ICd        CmGeom      CmAirf      XTrtop    XTrBot      XCP       BM
   -0.6133     0.2400    -5.822    0.295476    0.006557    0.015283   -0.059981    0.014232     0.5744    0.7227    0.2021    0.0000
   -0.5600     0.2400    -5.263    0.417515    0.006799    0.019483   -0.091420    0.013298     0.5166    0.7547    0.2183    0.3673
   -0.5067     0.2400    -4.781    0.492910    0.007204    0.020859   -0.112552    0.010928     0.4373    0.7763    0.2279    1.2530
   -0.4533     0.2400    -4.376    0.544622    0.009035    0.021065   -0.127509    0.008788     0.2083    0.7989    0.2339    2.7498
   -0.4000     0.2400    -4.043    0.581853    0.010050    0.020770   -0.138377    0.007116     0.1151    0.8153    0.2378    4.9213
   -0.3467     0.2400    -3.774    0.609363    0.010516    0.020289   -0.146403    0.005867     0.0863    0.8277    0.2404    7.8128
   -0.2933     0.2400    -3.561    0.629930    0.010842    0.019773   -0.152378    0.004947     0.0681    0.8370    0.2421   11.4581
   -0.2400     0.2400    -3.394    0.645287    0.011046    0.019297   -0.156817    0.004278     0.0605    0.8450    0.2434   15.8821
   -0.1867     0.2400    -3.268    0.656557    0.011191    0.018897   -0.160057    0.003800     0.0558    0.8511    0.2442   21.1034
   -0.1333     0.2400    -3.178    0.664477    0.011293    0.018590   -0.162324    0.003472     0.0524    0.8553    0.2448   27.1357
   -0.0800     0.2400    -3.119    0.669521    0.011358    0.018383   -0.163764    0.003267     0.0502    0.8580    0.2451   33.9887
   -0.0267     0.2400    -3.090    0.671977    0.011389    0.018279   -0.164463    0.003168     0.0492    0.8593    0.2453   41.6684
    0.0267     0.2400    -3.090    0.671977    0.011389    0.018279   -0.164463    0.003168     0.0492    0.8593    0.2453   41.6684
    0.0800     0.2400    -3.119    0.669521    0.011358    0.018383   -0.163764    0.003267     0.0502    0.8580    0.2451   33.9887
    0.1333     0.2400    -3.178    0.664477    0.011293    0.018590   -0.162324    0.003472     0.0524    0.8553    0.2448   27.1357
    0.1867     0.2400    -3.268    0.656557    0.011191    0.018897   -0.160057    0.003800     0.0558    0.8511    0.2442   21.1034
    0.2400     0.2400    -3.394    0.645287    0.011046    0.019297   -0.156817    0.004278     0.0605    0.8450    0.2434   15.8821
    0.2933     0.2400    -3.561    0.629930    0.010842    0.019773   -0.152378    0.004947     0.0681    0.8370    0.2421   11.4581
    0.3467     0.2400    -3.774    0.609363    0.010516    0.020289   -0.146403    0.005867     0.0863    0.8277    0.2404    7.8128
    0.4000     0.2400    -4.043    0.581853    0.010050    0.020770   -0.138377    0.007116     0.1151    0.8153    0.2378    4.9213
    0.4533     0.2400    -4.376    0.544622    0.009035    0.021065   -0.127509    0.008788     0.2083    0.7989    0.2339    2.7498
    0.5067     0.2400    -4.781    0.492910    0.007204    0.020859   -0.112552    0.010928     0.4373    0.7763    0.2279    1.2530
    0.5600     0.2400    -5.263    0.417515    0.006799    0.019483   -0.091420    0.013298     0.5166    0.7547    0.2183    0.3673
    0.6133     0.2400    -5.822    0.295476    0.006557    0.015283   -0.059981    0.014232     0.5744    0.7227    0.2021    0.0000


Wing Cp Coefficients
 Panel     CtrlPt.x        CtrlPt.y        CtrlPt.z             Cp
NAC642A015 WingCp Coefficients
Strip 1
   8       2.325e-01      -5.600e-01       6.956e-09          0.0669
   9       2.025e-01      -5.600e-01       1.310e-08          0.1099
  10       1.725e-01      -5.600e-01       9.197e-08          0.1541
  11       1.425e-01      -5.600e-01       1.051e-06          0.2083
  12       1.125e-01      -5.600e-01       3.147e-06          0.2831
  13       8.250e-02      -5.600e-01       3.276e-06          0.4004
  14       5.250e-02      -5.600e-01       6.615e-07          0.6317
  15       2.250e-02      -5.600e-01       3.319e-07          1.4966
Strip 2
  16       2.325e-01      -5.067e-01       6.956e-09          0.0845
  17       2.025e-01      -5.067e-01       1.310e-08          0.1391
  18       1.725e-01      -5.067e-01       9.197e-08          0.1948
  19       1.425e-01      -5.067e-01       1.051e-06          0.2616
  20       1.125e-01      -5.067e-01       3.147e-06          0.3511
  21       8.250e-02      -5.067e-01       3.276e-06          0.4862
  22       5.250e-02      -5.067e-01       6.615e-07          0.7432
  23       2.250e-02      -5.067e-01       3.319e-07          1.6909
Strip 3
  24       2.325e-01      -4.533e-01       6.956e-09          0.0980
  25       2.025e-01      -4.533e-01       1.310e-08          0.1611
  26       1.725e-01      -4.533e-01       9.197e-08          0.2246
  27       1.425e-01      -4.533e-01       1.051e-06          0.2996
  28       1.125e-01      -4.533e-01       3.147e-06          0.3978
  29       8.250e-02      -4.533e-01       3.276e-06          0.5434
  30       5.250e-02      -4.533e-01       6.615e-07          0.8161
  31       2.250e-02      -4.533e-01       3.319e-07          1.8210
Strip 4
  32       2.325e-01      -4.000e-01       6.956e-09          0.1083
  33       2.025e-01      -4.000e-01       1.310e-08          0.1776
  34       1.725e-01      -4.000e-01       9.197e-08          0.2466
  35       1.425e-01      -4.000e-01       1.051e-06          0.3270
  36       1.125e-01      -4.000e-01       3.147e-06          0.4310
  37       8.250e-02      -4.000e-01       3.276e-06          0.5835
  38       5.250e-02      -4.000e-01       6.615e-07          0.8674
  39       2.250e-02      -4.000e-01       3.319e-07          1.9143
Strip 5
  40       2.325e-01      -3.467e-01       6.956e-09          0.1161
  41       2.025e-01      -3.467e-01       1.310e-08          0.1899
  42       1.725e-01      -3.467e-01       9.197e-08          0.2629
  43       1.425e-01      -3.467e-01       1.051e-06          0.3472
  44       1.125e-01      -3.467e-01       3.147e-06          0.4553
  45       8.250e-02      -3.467e-01       3.276e-06          0.6128
  46       5.250e-02      -3.467e-01       6.615e-07          0.9050
  47       2.250e-02      -3.467e-01       3.319e-07          1.9835
Strip 6
  48       2.325e-01      -2.933e-01       6.956e-09          0.1219
  49       2.025e-01      -2.933e-01       1.310e-08          0.1991
  50       1.725e-01      -2.933e-01       9.197e-08          0.2751
  51       1.425e-01      -2.933e-01       1.051e-06          0.3621
  52       1.125e-01      -2.933e-01       3.147e-06          0.4732
  53       8.250e-02      -2.933e-01       3.276e-06          0.6344
  54       5.250e-02      -2.933e-01       6.615e-07          0.9329
  55       2.250e-02      -2.933e-01       3.319e-07          2.0357
Strip 7
  56       2.325e-01      -2.400e-01       6.956e-09          0.1263
  57       2.025e-01      -2.400e-01       1.310e-08          0.2060
  58       1.725e-01      -2.400e-01       9.197e-08          0.2841
  59       1.425e-01      -2.400e-01       1.051e-06          0.3732
  60       1.125e-01      -2.400e-01       3.147e-06          0.4864
  61       8.250e-02      -2.400e-01       3.276e-06          0.6504
  62       5.250e-02      -2.400e-01       6.615e-07          0.9537
  63       2.250e-02      -2.400e-01       3.319e-07          2.0748
Strip 8
  64       2.325e-01      -1.867e-01       6.956e-09          0.1295
  65       2.025e-01      -1.867e-01       1.310e-08          0.2111
  66       1.725e-01      -1.867e-01       9.197e-08          0.2907
  67       1.425e-01      -1.867e-01       1.051e-06          0.3812
  68       1.125e-01      -1.867e-01       3.147e-06          0.4961
  69       8.250e-02      -1.867e-01       3.276e-06          0.6621
  70       5.250e-02      -1.867e-01       6.615e-07          0.9689
  71       2.250e-02      -1.867e-01       3.319e-07          2.1038
Strip 9
  72       2.325e-01      -1.333e-01       6.956e-09          0.1318
  73       2.025e-01      -1.333e-01       1.310e-08          0.2146
  74       1.725e-01      -1.333e-01       9.197e-08          0.2952
  75       1.425e-01      -1.333e-01       1.051e-06          0.3869
  76       1.125e-01      -1.333e-01       3.147e-06          0.5028
  77       8.250e-02      -1.333e-01       3.276e-06          0.6703
  78       5.250e-02      -1.333e-01       6.615e-07          0.9797
  79       2.250e-02      -1.333e-01       3.319e-07          2.1242
Strip 10
  80       2.325e-01      -8.000e-02       6.956e-09          0.1332
  81       2.025e-01      -8.000e-02       1.310e-08          0.2168
  82       1.725e-01      -8.000e-02       9.197e-08          0.2981
  83       1.425e-01      -8.000e-02       1.051e-06          0.3904
  84       1.125e-01      -8.000e-02       3.147e-06          0.5071
  85       8.250e-02      -8.000e-02       3.276e-06          0.6756
  86       5.250e-02      -8.000e-02       6.615e-07          0.9865
  87       2.250e-02      -8.000e-02       3.319e-07          2.1372
Strip 11
  88       2.325e-01      -2.667e-02       6.956e-09          0.1339
  89       2.025e-01      -2.667e-02       1.310e-08          0.2179
  90       1.725e-01      -2.667e-02       9.197e-08          0.2996
  91       1.425e-01      -2.667e-02       1.051e-06          0.3922
  92       1.125e-01      -2.667e-02       3.147e-06          0.5092
  93       8.250e-02      -2.667e-02       3.276e-06          0.6781
  94       5.250e-02      -2.667e-02       6.615e-07          0.9898
  95       2.250e-02      -2.667e-02       3.319e-07          2.1436
Strip 12
  96       2.325e-01       2.667e-02       6.956e-09          0.1339
  97       2.025e-01       2.667e-02       1.310e-08          0.2179
  98       1.725e-01       2.667e-02       9.197e-08          0.2996
  99       1.425e-01       2.667e-02       1.051e-06          0.3922
 100       1.125e-01       2.667e-02       3.147e-06          0.5092
 101       8.250e-02       2.667e-02       3.276e-06          0.6781
 102       5.250e-02       2.667e-02       6.615e-07          0.9898
 103       2.250e-02       2.667e-02       3.319e-07          2.1436
Strip 13
 104       2.325e-01       8.000e-02       6.956e-09          0.1332
 105       2.025e-01       8.000e-02       1.310e-08          0.2168
 106       1.725e-01       8.000e-02       9.197e-08          0.2981
 107       1.425e-01       8.000e-02       1.051e-06          0.3904
 108       1.125e-01       8.000e-02       3.147e-06          0.5071
 109       8.250e-02       8.000e-02       3.276e-06          0.6756
 110       5.250e-02       8.000e-02       6.615e-07          0.9865
 111       2.250e-02       8.000e-02       3.319e-07          2.1372
Strip 14
 112       2.325e-01       1.333e-01       6.956e-09          0.1318
 113       2.025e-01       1.333e-01       1.310e-08          0.2146
 114       1.725e-01       1.333e-01       9.197e-08          0.2952
 115       1.425e-01       1.333e-01       1.051e-06          0.3869
 116       1.125e-01       1.333e-01       3.147e-06          0.5028
 117       8.250e-02       1.333e-01       3.276e-06          0.6703
 118       5.250e-02       1.333e-01       6.615e-07          0.9797
 119       2.250e-02       1.333e-01       3.319e-07          2.1242
Strip 15
 120       2.325e-01       1.867e-01       6.956e-09          0.1295
 121       2.025e-01       1.867e-01       1.310e-08          0.2111
 122       1.725e-01       1.867e-01       9.197e-08          0.2907
 123       1.425e-01       1.867e-01       1.051e-06          0.3812
 124       1.125e-01       1.867e-01       3.147e-06          0.4961
 125       8.250e-02       1.867e-01       3.276e-06          0.6621
 126       5.250e-02       1.867e-01       6.615e-07          0.9689
 127       2.250e-02       1.867e-01       3.319e-07          2.1038
Strip 16
 128       2.325e-01       2.400e-01       6.956e-09          0.1263
 129       2.025e-01       2.400e-01       1.310e-08          0.2060
 130       1.725e-01       2.400e-01       9.197e-08          0.2841
 131       1.425e-01       2.400e-01       1.051e-06          0.3732
 132       1.125e-01       2.400e-01       3.147e-06          0.4864
 133       8.250e-02       2.400e-01       3.276e-06          0.6504
 134       5.250e-02       2.400e-01       6.615e-07          0.9537
 135       2.250e-02       2.400e-01       3.319e-07          2.0748
Strip 17
 136       2.325e-01       2.933e-01       6.956e-09          0.1219
 137       2.025e-01       2.933e-01       1.310e-08          0.1991
 138       1.725e-01       2.933e-01       9.197e-08          0.2751
 139       1.425e-01       2.933e-01       1.051e-06          0.3621
 140       1.125e-01       2.933e-01       3.147e-06          0.4732
 141       8.250e-02       2.933e-01       3.276e-06          0.6344
 142       5.250e-02       2.933e-01       6.615e-07          0.9329
 143       2.250e-02       2.933e-01       3.319e-07          2.0357
Strip 18
 144       2.325e-01       3.467e-01       6.956e-09          0.1161
 145       2.025e-01       3.467e-01       1.310e-08          0.1899
 146       1.725e-01       3.467e-01       9.197e-08          0.2629
 147       1.425e-01       3.467e-01       1.051e-06          0.3472
 148       1.125e-01       3.467e-01       3.147e-06          0.4553
 149       8.250e-02       3.467e-01       3.276e-06          0.6128
 150       5.250e-02       3.467e-01       6.615e-07          0.9050
 151       2.250e-02       3.467e-01       3.319e-07          1.9835
Strip 19
 152       2.325e-01       4.000e-01       6.956e-09          0.1083
 153       2.025e-01       4.000e-01       1.310e-08          0.1776
 154       1.725e-01       4.000e-01       9.197e-08          0.2466
 155       1.425e-01       4.000e-01       1.051e-06          0.3270
 156       1.125e-01       4.000e-01       3.147e-06          0.4310
 157       8.250e-02       4.000e-01       3.276e-06          0.5835
 158       5.250e-02       4.000e-01       6.615e-07          0.8674
 159       2.250e-02       4.000e-01       3.319e-07          1.9143
Strip 20
 160       2.325e-01       4.533e-01       6.956e-09          0.0980
 161       2.025e-01       4.533e-01       1.310e-08          0.1611
 162       1.725e-01       4.533e-01       9.197e-08          0.2246
 163       1.425e-01       4.533e-01       1.051e-06          0.2996
 164       1.125e-01       4.533e-01       3.147e-06          0.3978
 165       8.250e-02       4.533e-01       3.276e-06          0.5434
 166       5.250e-02       4.533e-01       6.615e-07          0.8161
 167       2.250e-02       4.533e-01       3.319e-07          1.8210
Strip 21
 168       2.325e-01       5.067e-01       6.956e-09          0.0845
 169       2.025e-01       5.067e-01       1.310e-08          0.1391
 170       1.725e-01       5.067e-01       9.197e-08          0.1948
 171       1.425e-01       5.067e-01       1.051e-06          0.2616
 172       1.125e-01       5.067e-01       3.147e-06          0.3511
 173       8.250e-02       5.067e-01       3.276e-06          0.4862
 174       5.250e-02       5.067e-01       6.615e-07          0.7432
 175       2.250e-02       5.067e-01       3.319e-07          1.6909
Strip 22
 176       2.325e-01       5.600e-01       6.956e-09          0.0669
 177       2.025e-01       5.600e-01       1.310e-08          0.1099
 178       1.725e-01       5.600e-01       9.197e-08          0.1541
 179       1.425e-01       5.600e-01       1.051e-06          0.2083
 180       1.125e-01       5.600e-01       3.147e-06          0.2831
 181       8.250e-02       5.600e-01       3.276e-06          0.4004
 182       5.250e-02       5.600e-01       6.615e-07          0.6317
 183       2.250e-02       5.600e-01       3.319e-07          1.4966
Strip 23
 184       2.325e-01       6.133e-01       6.956e-09          0.0436
 185       2.025e-01       6.133e-01       1.310e-08          0.0704
 186       1.725e-01       6.133e-01       9.197e-08          0.0979
 187       1.425e-01       6.133e-01       1.051e-06          0.1321
 188       1.125e-01       6.133e-01       3.147e-06          0.1807
 189       8.250e-02       6.133e-01       3.276e-06          0.2610
 190       5.250e-02       6.133e-01       6.615e-07          0.4354
 191       2.250e-02       6.133e-01       3.319e-07          1.1537
Strip 24
 192       0.000e+00       0.000e+00       0.000e+00         -2.5165
 193       0.000e+00       0.000e+00       0.000e+00         -4.0626
 194       0.000e+00       0.000e+00       0.000e+00         -5.6467
 195       0.000e+00       0.000e+00       0.000e+00         -7.6243
 196       0.000e+00       0.000e+00       0.000e+00        -10.4279
 197       0.000e+00       0.000e+00       0.000e+00        -15.0607
 198       0.000e+00       0.000e+00       0.000e+00        -25.1220
 199       0.000e+00       0.000e+00       0.000e+00        -66.5738










