XFLR5 v6.02 Beta

NAC642A015 Wing
T1-54.4 m/s-VLM1-x0.000mm
QInf  =   54.400000 m/s
Alpha =    4.000000
Beta  =    0.000°
Phi   =    0.000°
Ctrl  =   18.000
CL    =    0.289387
Cy    =    0.000000
Cd    =    0.011431     ICd   =    0.004871     PCd   =    0.006559
Cl   = 3.52952e-18
Cm   =  -0.0688441
ICn   =    0.000000     PCn   =   -0.000000 
XCP   =    0.057234     YCP   =    0.000000 
XNP   =    0.000000
Bend. =   21.039813

NAC642A015 Wing
  y-span        Chord      Ai         Cl        PCd          ICd        CmGeom      CmAirf      XTrtop    XTrBot      XCP       BM
   -0.6133     0.2400    -2.947    0.149717    0.006461    0.003868   -0.030288    0.007185     0.6225    0.6867    0.2021    0.0000
   -0.5600     0.2400    -2.663    0.211331    0.006484    0.004931   -0.046164    0.006712     0.6059    0.7010    0.2183    0.1855
   -0.5067     0.2400    -2.418    0.249267    0.006517    0.005279   -0.056834    0.005515     0.5926    0.7105    0.2279    0.6327
   -0.4533     0.2400    -2.213    0.275209    0.006537    0.005331   -0.064387    0.004434     0.5825    0.7174    0.2339    1.3885
   -0.4000     0.2400    -2.044    0.293840    0.006555    0.005257   -0.069874    0.003590     0.5751    0.7222    0.2378    2.4849
   -0.3467     0.2400    -1.908    0.307578    0.006571    0.005135   -0.073927    0.002959     0.5696    0.7258    0.2404    3.9450
   -0.2933     0.2400    -1.800    0.317833    0.006583    0.005004   -0.076944    0.002495     0.5654    0.7284    0.2421    5.7856
   -0.2400     0.2400    -1.715    0.325480    0.006592    0.004884   -0.079185    0.002157     0.5624    0.7304    0.2434    8.0194
   -0.1867     0.2400    -1.652    0.331087    0.006598    0.004783   -0.080821    0.001916     0.5601    0.7318    0.2442   10.6558
   -0.1333     0.2400    -1.606    0.335024    0.006603    0.004705   -0.081966    0.001750     0.5585    0.7328    0.2448   13.7018
   -0.0800     0.2400    -1.576    0.337531    0.006606    0.004653   -0.082693    0.001647     0.5575    0.7334    0.2451   17.1621
   -0.0267     0.2400    -1.562    0.338751    0.006607    0.004626   -0.083046    0.001597     0.5570    0.7338    0.2453   21.0398
    0.0267     0.2400    -1.562    0.338751    0.006607    0.004626   -0.083046    0.001597     0.5570    0.7338    0.2453   21.0398
    0.0800     0.2400    -1.576    0.337531    0.006606    0.004653   -0.082693    0.001647     0.5575    0.7334    0.2451   17.1621
    0.1333     0.2400    -1.606    0.335024    0.006603    0.004705   -0.081966    0.001750     0.5585    0.7328    0.2448   13.7018
    0.1867     0.2400    -1.652    0.331087    0.006598    0.004783   -0.080821    0.001916     0.5601    0.7318    0.2442   10.6558
    0.2400     0.2400    -1.715    0.325480    0.006592    0.004884   -0.079185    0.002157     0.5624    0.7304    0.2434    8.0194
    0.2933     0.2400    -1.800    0.317833    0.006583    0.005004   -0.076944    0.002495     0.5654    0.7284    0.2421    5.7856
    0.3467     0.2400    -1.908    0.307578    0.006571    0.005135   -0.073927    0.002959     0.5696    0.7258    0.2404    3.9450
    0.4000     0.2400    -2.044    0.293840    0.006555    0.005257   -0.069874    0.003590     0.5751    0.7222    0.2378    2.4849
    0.4533     0.2400    -2.213    0.275209    0.006537    0.005331   -0.064387    0.004434     0.5825    0.7174    0.2339    1.3885
    0.5067     0.2400    -2.418    0.249267    0.006517    0.005279   -0.056834    0.005515     0.5926    0.7105    0.2279    0.6327
    0.5600     0.2400    -2.663    0.211331    0.006484    0.004931   -0.046164    0.006712     0.6059    0.7010    0.2183    0.1855
    0.6133     0.2400    -2.947    0.149717    0.006461    0.003868   -0.030288    0.007185     0.6225    0.6867    0.2021    0.0000


Wing Cp Coefficients
 Panel     CtrlPt.x        CtrlPt.y        CtrlPt.z             Cp
NAC642A015 WingCp Coefficients
Strip 1
   8       2.325e-01      -5.600e-01       6.956e-09          0.0338
   9       2.025e-01      -5.600e-01       1.310e-08          0.0554
  10       1.725e-01      -5.600e-01       9.197e-08          0.0777
  11       1.425e-01      -5.600e-01       1.051e-06          0.1053
  12       1.125e-01      -5.600e-01       3.147e-06          0.1432
  13       8.250e-02      -5.600e-01       3.276e-06          0.2021
  14       5.250e-02      -5.600e-01       6.615e-07          0.3189
  15       2.250e-02      -5.600e-01       3.319e-07          0.7556
Strip 2
  16       2.325e-01      -5.067e-01       6.956e-09          0.0427
  17       2.025e-01      -5.067e-01       1.310e-08          0.0702
  18       1.725e-01      -5.067e-01       9.197e-08          0.0983
  19       1.425e-01      -5.067e-01       1.051e-06          0.1322
  20       1.125e-01      -5.067e-01       3.147e-06          0.1775
  21       8.250e-02      -5.067e-01       3.276e-06          0.2454
  22       5.250e-02      -5.067e-01       6.615e-07          0.3752
  23       2.250e-02      -5.067e-01       3.319e-07          0.8537
Strip 3
  24       2.325e-01      -4.533e-01       6.956e-09          0.0495
  25       2.025e-01      -4.533e-01       1.310e-08          0.0813
  26       1.725e-01      -4.533e-01       9.197e-08          0.1134
  27       1.425e-01      -4.533e-01       1.051e-06          0.1514
  28       1.125e-01      -4.533e-01       3.147e-06          0.2011
  29       8.250e-02      -4.533e-01       3.276e-06          0.2743
  30       5.250e-02      -4.533e-01       6.615e-07          0.4120
  31       2.250e-02      -4.533e-01       3.319e-07          0.9194
Strip 4
  32       2.325e-01      -4.000e-01       6.956e-09          0.0547
  33       2.025e-01      -4.000e-01       1.310e-08          0.0896
  34       1.725e-01      -4.000e-01       9.197e-08          0.1245
  35       1.425e-01      -4.000e-01       1.051e-06          0.1652
  36       1.125e-01      -4.000e-01       3.147e-06          0.2179
  37       8.250e-02      -4.000e-01       3.276e-06          0.2946
  38       5.250e-02      -4.000e-01       6.615e-07          0.4380
  39       2.250e-02      -4.000e-01       3.319e-07          0.9665
Strip 5
  40       2.325e-01      -3.467e-01       6.956e-09          0.0586
  41       2.025e-01      -3.467e-01       1.310e-08          0.0958
  42       1.725e-01      -3.467e-01       9.197e-08          0.1327
  43       1.425e-01      -3.467e-01       1.051e-06          0.1754
  44       1.125e-01      -3.467e-01       3.147e-06          0.2301
  45       8.250e-02      -3.467e-01       3.276e-06          0.3093
  46       5.250e-02      -3.467e-01       6.615e-07          0.4569
  47       2.250e-02      -3.467e-01       3.319e-07          1.0015
Strip 6
  48       2.325e-01      -2.933e-01       6.956e-09          0.0616
  49       2.025e-01      -2.933e-01       1.310e-08          0.1005
  50       1.725e-01      -2.933e-01       9.197e-08          0.1388
  51       1.425e-01      -2.933e-01       1.051e-06          0.1829
  52       1.125e-01      -2.933e-01       3.147e-06          0.2392
  53       8.250e-02      -2.933e-01       3.276e-06          0.3202
  54       5.250e-02      -2.933e-01       6.615e-07          0.4710
  55       2.250e-02      -2.933e-01       3.319e-07          1.0278
Strip 7
  56       2.325e-01      -2.400e-01       6.956e-09          0.0638
  57       2.025e-01      -2.400e-01       1.310e-08          0.1040
  58       1.725e-01      -2.400e-01       9.197e-08          0.1434
  59       1.425e-01      -2.400e-01       1.051e-06          0.1885
  60       1.125e-01      -2.400e-01       3.147e-06          0.2459
  61       8.250e-02      -2.400e-01       3.276e-06          0.3283
  62       5.250e-02      -2.400e-01       6.615e-07          0.4815
  63       2.250e-02      -2.400e-01       3.319e-07          1.0476
Strip 8
  64       2.325e-01      -1.867e-01       6.956e-09          0.0654
  65       2.025e-01      -1.867e-01       1.310e-08          0.1065
  66       1.725e-01      -1.867e-01       9.197e-08          0.1467
  67       1.425e-01      -1.867e-01       1.051e-06          0.1926
  68       1.125e-01      -1.867e-01       3.147e-06          0.2507
  69       8.250e-02      -1.867e-01       3.276e-06          0.3342
  70       5.250e-02      -1.867e-01       6.615e-07          0.4892
  71       2.250e-02      -1.867e-01       3.319e-07          1.0622
Strip 9
  72       2.325e-01      -1.333e-01       6.956e-09          0.0665
  73       2.025e-01      -1.333e-01       1.310e-08          0.1083
  74       1.725e-01      -1.333e-01       9.197e-08          0.1490
  75       1.425e-01      -1.333e-01       1.051e-06          0.1954
  76       1.125e-01      -1.333e-01       3.147e-06          0.2541
  77       8.250e-02      -1.333e-01       3.276e-06          0.3384
  78       5.250e-02      -1.333e-01       6.615e-07          0.4946
  79       2.250e-02      -1.333e-01       3.319e-07          1.0725
Strip 10
  80       2.325e-01      -8.000e-02       6.956e-09          0.0672
  81       2.025e-01      -8.000e-02       1.310e-08          0.1094
  82       1.725e-01      -8.000e-02       9.197e-08          0.1505
  83       1.425e-01      -8.000e-02       1.051e-06          0.1972
  84       1.125e-01      -8.000e-02       3.147e-06          0.2563
  85       8.250e-02      -8.000e-02       3.276e-06          0.3410
  86       5.250e-02      -8.000e-02       6.615e-07          0.4981
  87       2.250e-02      -8.000e-02       3.319e-07          1.0791
Strip 11
  88       2.325e-01      -2.667e-02       6.956e-09          0.0676
  89       2.025e-01      -2.667e-02       1.310e-08          0.1100
  90       1.725e-01      -2.667e-02       9.197e-08          0.1512
  91       1.425e-01      -2.667e-02       1.051e-06          0.1981
  92       1.125e-01      -2.667e-02       3.147e-06          0.2574
  93       8.250e-02      -2.667e-02       3.276e-06          0.3423
  94       5.250e-02      -2.667e-02       6.615e-07          0.4998
  95       2.250e-02      -2.667e-02       3.319e-07          1.0823
Strip 12
  96       2.325e-01       2.667e-02       6.956e-09          0.0676
  97       2.025e-01       2.667e-02       1.310e-08          0.1100
  98       1.725e-01       2.667e-02       9.197e-08          0.1512
  99       1.425e-01       2.667e-02       1.051e-06          0.1981
 100       1.125e-01       2.667e-02       3.147e-06          0.2574
 101       8.250e-02       2.667e-02       3.276e-06          0.3423
 102       5.250e-02       2.667e-02       6.615e-07          0.4998
 103       2.250e-02       2.667e-02       3.319e-07          1.0823
Strip 13
 104       2.325e-01       8.000e-02       6.956e-09          0.0672
 105       2.025e-01       8.000e-02       1.310e-08          0.1094
 106       1.725e-01       8.000e-02       9.197e-08          0.1505
 107       1.425e-01       8.000e-02       1.051e-06          0.1972
 108       1.125e-01       8.000e-02       3.147e-06          0.2563
 109       8.250e-02       8.000e-02       3.276e-06          0.3410
 110       5.250e-02       8.000e-02       6.615e-07          0.4981
 111       2.250e-02       8.000e-02       3.319e-07          1.0791
Strip 14
 112       2.325e-01       1.333e-01       6.956e-09          0.0665
 113       2.025e-01       1.333e-01       1.310e-08          0.1083
 114       1.725e-01       1.333e-01       9.197e-08          0.1490
 115       1.425e-01       1.333e-01       1.051e-06          0.1954
 116       1.125e-01       1.333e-01       3.147e-06          0.2541
 117       8.250e-02       1.333e-01       3.276e-06          0.3384
 118       5.250e-02       1.333e-01       6.615e-07          0.4946
 119       2.250e-02       1.333e-01       3.319e-07          1.0725
Strip 15
 120       2.325e-01       1.867e-01       6.956e-09          0.0654
 121       2.025e-01       1.867e-01       1.310e-08          0.1065
 122       1.725e-01       1.867e-01       9.197e-08          0.1467
 123       1.425e-01       1.867e-01       1.051e-06          0.1926
 124       1.125e-01       1.867e-01       3.147e-06          0.2507
 125       8.250e-02       1.867e-01       3.276e-06          0.3342
 126       5.250e-02       1.867e-01       6.615e-07          0.4892
 127       2.250e-02       1.867e-01       3.319e-07          1.0622
Strip 16
 128       2.325e-01       2.400e-01       6.956e-09          0.0638
 129       2.025e-01       2.400e-01       1.310e-08          0.1040
 130       1.725e-01       2.400e-01       9.197e-08          0.1434
 131       1.425e-01       2.400e-01       1.051e-06          0.1885
 132       1.125e-01       2.400e-01       3.147e-06          0.2459
 133       8.250e-02       2.400e-01       3.276e-06          0.3283
 134       5.250e-02       2.400e-01       6.615e-07          0.4815
 135       2.250e-02       2.400e-01       3.319e-07          1.0476
Strip 17
 136       2.325e-01       2.933e-01       6.956e-09          0.0616
 137       2.025e-01       2.933e-01       1.310e-08          0.1005
 138       1.725e-01       2.933e-01       9.197e-08          0.1388
 139       1.425e-01       2.933e-01       1.051e-06          0.1829
 140       1.125e-01       2.933e-01       3.147e-06          0.2392
 141       8.250e-02       2.933e-01       3.276e-06          0.3202
 142       5.250e-02       2.933e-01       6.615e-07          0.4710
 143       2.250e-02       2.933e-01       3.319e-07          1.0278
Strip 18
 144       2.325e-01       3.467e-01       6.956e-09          0.0586
 145       2.025e-01       3.467e-01       1.310e-08          0.0958
 146       1.725e-01       3.467e-01       9.197e-08          0.1327
 147       1.425e-01       3.467e-01       1.051e-06          0.1754
 148       1.125e-01       3.467e-01       3.147e-06          0.2301
 149       8.250e-02       3.467e-01       3.276e-06          0.3093
 150       5.250e-02       3.467e-01       6.615e-07          0.4569
 151       2.250e-02       3.467e-01       3.319e-07          1.0015
Strip 19
 152       2.325e-01       4.000e-01       6.956e-09          0.0547
 153       2.025e-01       4.000e-01       1.310e-08          0.0896
 154       1.725e-01       4.000e-01       9.197e-08          0.1245
 155       1.425e-01       4.000e-01       1.051e-06          0.1652
 156       1.125e-01       4.000e-01       3.147e-06          0.2179
 157       8.250e-02       4.000e-01       3.276e-06          0.2946
 158       5.250e-02       4.000e-01       6.615e-07          0.4380
 159       2.250e-02       4.000e-01       3.319e-07          0.9665
Strip 20
 160       2.325e-01       4.533e-01       6.956e-09          0.0495
 161       2.025e-01       4.533e-01       1.310e-08          0.0813
 162       1.725e-01       4.533e-01       9.197e-08          0.1134
 163       1.425e-01       4.533e-01       1.051e-06          0.1514
 164       1.125e-01       4.533e-01       3.147e-06          0.2011
 165       8.250e-02       4.533e-01       3.276e-06          0.2743
 166       5.250e-02       4.533e-01       6.615e-07          0.4120
 167       2.250e-02       4.533e-01       3.319e-07          0.9194
Strip 21
 168       2.325e-01       5.067e-01       6.956e-09          0.0427
 169       2.025e-01       5.067e-01       1.310e-08          0.0702
 170       1.725e-01       5.067e-01       9.197e-08          0.0983
 171       1.425e-01       5.067e-01       1.051e-06          0.1322
 172       1.125e-01       5.067e-01       3.147e-06          0.1775
 173       8.250e-02       5.067e-01       3.276e-06          0.2454
 174       5.250e-02       5.067e-01       6.615e-07          0.3752
 175       2.250e-02       5.067e-01       3.319e-07          0.8537
Strip 22
 176       2.325e-01       5.600e-01       6.956e-09          0.0338
 177       2.025e-01       5.600e-01       1.310e-08          0.0554
 178       1.725e-01       5.600e-01       9.197e-08          0.0777
 179       1.425e-01       5.600e-01       1.051e-06          0.1053
 180       1.125e-01       5.600e-01       3.147e-06          0.1432
 181       8.250e-02       5.600e-01       3.276e-06          0.2021
 182       5.250e-02       5.600e-01       6.615e-07          0.3189
 183       2.250e-02       5.600e-01       3.319e-07          0.7556
Strip 23
 184       2.325e-01       6.133e-01       6.956e-09          0.0220
 185       2.025e-01       6.133e-01       1.310e-08          0.0355
 186       1.725e-01       6.133e-01       9.197e-08          0.0493
 187       1.425e-01       6.133e-01       1.051e-06          0.0668
 188       1.125e-01       6.133e-01       3.147e-06          0.0915
 189       8.250e-02       6.133e-01       3.276e-06          0.1317
 190       5.250e-02       6.133e-01       6.615e-07          0.2198
 191       2.250e-02       6.133e-01       3.319e-07          0.5825
Strip 24
 192       0.000e+00       0.000e+00       0.000e+00         -1.3461
 193       0.000e+00       0.000e+00       0.000e+00         -2.1716
 194       0.000e+00       0.000e+00       0.000e+00         -3.0177
 195       0.000e+00       0.000e+00       0.000e+00         -4.0840
 196       0.000e+00       0.000e+00       0.000e+00         -5.5909
 197       0.000e+00       0.000e+00       0.000e+00         -8.0534
 198       0.000e+00       0.000e+00       0.000e+00        -13.4407
 199       0.000e+00       0.000e+00       0.000e+00        -35.6185










