XFLR5 v6.02 Beta

NAC642A015 Wing
T1-54.4 m/s-VLM1-x0.000mm
QInf  =   54.400000 m/s
Alpha =    3.000000
Beta  =    0.000°
Phi   =    0.000°
Ctrl  =   18.000
CL    =    0.217347
Cy    =    0.000000
Cd    =    0.009243     ICd   =    0.002745     PCd   =    0.006498
Cl   = -3.11122e-18
Cm   =  -0.0517095
ICn   =    0.000000     PCn   =    0.000000 
XCP   =    0.057177     YCP   =    0.000000 
XNP   =    0.000000
Bend. =   15.802754

NAC642A015 Wing
  y-span        Chord      Ai         Cl        PCd          ICd        CmGeom      CmAirf      XTrtop    XTrBot      XCP       BM
   -0.6133     0.2400    -2.215    0.112508    0.006480    0.002180   -0.022750    0.005395     0.6302    0.6780    0.2021    0.0000
   -0.5600     0.2400    -2.001    0.158785    0.006456    0.002779   -0.034674    0.005040     0.6206    0.6889    0.2183    0.1393
   -0.5067     0.2400    -1.817    0.187264    0.006462    0.002975   -0.042689    0.004141     0.6132    0.6955    0.2279    0.4752
   -0.4533     0.2400    -1.662    0.206731    0.006480    0.003004   -0.048362    0.003329     0.6073    0.7000    0.2339    1.0429
   -0.4000     0.2400    -1.536    0.220705    0.006493    0.002962   -0.052483    0.002695     0.6030    0.7032    0.2378    1.8664
   -0.3467     0.2400    -1.433    0.231007    0.006502    0.002894   -0.055527    0.002221     0.5997    0.7056    0.2404    2.9630
   -0.2933     0.2400    -1.352    0.238695    0.006508    0.002820   -0.057793    0.001872     0.5967    0.7077    0.2422    4.3455
   -0.2400     0.2400    -1.289    0.244428    0.006513    0.002752   -0.059477    0.001619     0.5945    0.7092    0.2434    6.0233
   -0.1867     0.2400    -1.241    0.248630    0.006516    0.002695   -0.060705    0.001437     0.5928    0.7103    0.2442    8.0035
   -0.1333     0.2400    -1.206    0.251580    0.006519    0.002651   -0.061565    0.001313     0.5917    0.7111    0.2448   10.2912
   -0.0800     0.2400    -1.184    0.253458    0.006520    0.002622   -0.062111    0.001235     0.5910    0.7116    0.2451   12.8902
   -0.0267     0.2400    -1.173    0.254372    0.006521    0.002607   -0.062376    0.001198     0.5906    0.7118    0.2453   15.8028
    0.0267     0.2400    -1.173    0.254372    0.006521    0.002607   -0.062376    0.001198     0.5906    0.7118    0.2453   15.8028
    0.0800     0.2400    -1.184    0.253458    0.006520    0.002622   -0.062111    0.001235     0.5910    0.7116    0.2451   12.8902
    0.1333     0.2400    -1.206    0.251580    0.006519    0.002651   -0.061565    0.001313     0.5917    0.7111    0.2448   10.2912
    0.1867     0.2400    -1.241    0.248630    0.006516    0.002695   -0.060705    0.001437     0.5928    0.7103    0.2442    8.0035
    0.2400     0.2400    -1.289    0.244428    0.006513    0.002752   -0.059477    0.001619     0.5945    0.7092    0.2434    6.0233
    0.2933     0.2400    -1.352    0.238695    0.006508    0.002820   -0.057793    0.001872     0.5967    0.7077    0.2422    4.3455
    0.3467     0.2400    -1.433    0.231007    0.006502    0.002894   -0.055527    0.002221     0.5997    0.7056    0.2404    2.9630
    0.4000     0.2400    -1.536    0.220705    0.006493    0.002962   -0.052483    0.002695     0.6030    0.7032    0.2378    1.8664
    0.4533     0.2400    -1.662    0.206731    0.006480    0.003004   -0.048362    0.003329     0.6073    0.7000    0.2339    1.0429
    0.5067     0.2400    -1.817    0.187264    0.006462    0.002975   -0.042689    0.004141     0.6132    0.6955    0.2279    0.4752
    0.5600     0.2400    -2.001    0.158785    0.006456    0.002779   -0.034674    0.005040     0.6206    0.6889    0.2183    0.1393
    0.6133     0.2400    -2.215    0.112508    0.006480    0.002180   -0.022750    0.005395     0.6302    0.6780    0.2021    0.0000


Wing Cp Coefficients
 Panel     CtrlPt.x        CtrlPt.y        CtrlPt.z             Cp
NAC642A015 WingCp Coefficients
Strip 1
   8       2.325e-01      -5.600e-01       6.956e-09          0.0254
   9       2.025e-01      -5.600e-01       1.310e-08          0.0416
  10       1.725e-01      -5.600e-01       9.197e-08          0.0583
  11       1.425e-01      -5.600e-01       1.051e-06          0.0791
  12       1.125e-01      -5.600e-01       3.147e-06          0.1077
  13       8.250e-02      -5.600e-01       3.276e-06          0.1517
  14       5.250e-02      -5.600e-01       6.615e-07          0.2395
  15       2.250e-02      -5.600e-01       3.319e-07          0.5675
Strip 2
  16       2.325e-01      -5.067e-01       6.956e-09          0.0320
  17       2.025e-01      -5.067e-01       1.310e-08          0.0527
  18       1.725e-01      -5.067e-01       9.197e-08          0.0738
  19       1.425e-01      -5.067e-01       1.051e-06          0.0994
  20       1.125e-01      -5.067e-01       3.147e-06          0.1334
  21       8.250e-02      -5.067e-01       3.276e-06          0.1843
  22       5.250e-02      -5.067e-01       6.615e-07          0.2818
  23       2.250e-02      -5.067e-01       3.319e-07          0.6412
Strip 3
  24       2.325e-01      -4.533e-01       6.956e-09          0.0372
  25       2.025e-01      -4.533e-01       1.310e-08          0.0610
  26       1.725e-01      -4.533e-01       9.197e-08          0.0851
  27       1.425e-01      -4.533e-01       1.051e-06          0.1137
  28       1.125e-01      -4.533e-01       3.147e-06          0.1512
  29       8.250e-02      -4.533e-01       3.276e-06          0.2059
  30       5.250e-02      -4.533e-01       6.615e-07          0.3095
  31       2.250e-02      -4.533e-01       3.319e-07          0.6905
Strip 4
  32       2.325e-01      -4.000e-01       6.956e-09          0.0411
  33       2.025e-01      -4.000e-01       1.310e-08          0.0673
  34       1.725e-01      -4.000e-01       9.197e-08          0.0934
  35       1.425e-01      -4.000e-01       1.051e-06          0.1241
  36       1.125e-01      -4.000e-01       3.147e-06          0.1638
  37       8.250e-02      -4.000e-01       3.276e-06          0.2212
  38       5.250e-02      -4.000e-01       6.615e-07          0.3289
  39       2.250e-02      -4.000e-01       3.319e-07          0.7259
Strip 5
  40       2.325e-01      -3.467e-01       6.956e-09          0.0440
  41       2.025e-01      -3.467e-01       1.310e-08          0.0720
  42       1.725e-01      -3.467e-01       9.197e-08          0.0996
  43       1.425e-01      -3.467e-01       1.051e-06          0.1318
  44       1.125e-01      -3.467e-01       3.147e-06          0.1730
  45       8.250e-02      -3.467e-01       3.276e-06          0.2323
  46       5.250e-02      -3.467e-01       6.615e-07          0.3432
  47       2.250e-02      -3.467e-01       3.319e-07          0.7522
Strip 6
  48       2.325e-01      -2.933e-01       6.956e-09          0.0462
  49       2.025e-01      -2.933e-01       1.310e-08          0.0755
  50       1.725e-01      -2.933e-01       9.197e-08          0.1042
  51       1.425e-01      -2.933e-01       1.051e-06          0.1375
  52       1.125e-01      -2.933e-01       3.147e-06          0.1798
  53       8.250e-02      -2.933e-01       3.276e-06          0.2405
  54       5.250e-02      -2.933e-01       6.615e-07          0.3538
  55       2.250e-02      -2.933e-01       3.319e-07          0.7719
Strip 7
  56       2.325e-01      -2.400e-01       6.956e-09          0.0479
  57       2.025e-01      -2.400e-01       1.310e-08          0.0781
  58       1.725e-01      -2.400e-01       9.197e-08          0.1077
  59       1.425e-01      -2.400e-01       1.051e-06          0.1417
  60       1.125e-01      -2.400e-01       3.147e-06          0.1848
  61       8.250e-02      -2.400e-01       3.276e-06          0.2466
  62       5.250e-02      -2.400e-01       6.615e-07          0.3616
  63       2.250e-02      -2.400e-01       3.319e-07          0.7868
Strip 8
  64       2.325e-01      -1.867e-01       6.956e-09          0.0491
  65       2.025e-01      -1.867e-01       1.310e-08          0.0800
  66       1.725e-01      -1.867e-01       9.197e-08          0.1101
  67       1.425e-01      -1.867e-01       1.051e-06          0.1447
  68       1.125e-01      -1.867e-01       3.147e-06          0.1884
  69       8.250e-02      -1.867e-01       3.276e-06          0.2510
  70       5.250e-02      -1.867e-01       6.615e-07          0.3674
  71       2.250e-02      -1.867e-01       3.319e-07          0.7978
Strip 9
  72       2.325e-01      -1.333e-01       6.956e-09          0.0500
  73       2.025e-01      -1.333e-01       1.310e-08          0.0813
  74       1.725e-01      -1.333e-01       9.197e-08          0.1119
  75       1.425e-01      -1.333e-01       1.051e-06          0.1468
  76       1.125e-01      -1.333e-01       3.147e-06          0.1910
  77       8.250e-02      -1.333e-01       3.276e-06          0.2541
  78       5.250e-02      -1.333e-01       6.615e-07          0.3715
  79       2.250e-02      -1.333e-01       3.319e-07          0.8055
Strip 10
  80       2.325e-01      -8.000e-02       6.956e-09          0.0505
  81       2.025e-01      -8.000e-02       1.310e-08          0.0822
  82       1.725e-01      -8.000e-02       9.197e-08          0.1130
  83       1.425e-01      -8.000e-02       1.051e-06          0.1482
  84       1.125e-01      -8.000e-02       3.147e-06          0.1926
  85       8.250e-02      -8.000e-02       3.276e-06          0.2561
  86       5.250e-02      -8.000e-02       6.615e-07          0.3741
  87       2.250e-02      -8.000e-02       3.319e-07          0.8104
Strip 11
  88       2.325e-01      -2.667e-02       6.956e-09          0.0508
  89       2.025e-01      -2.667e-02       1.310e-08          0.0826
  90       1.725e-01      -2.667e-02       9.197e-08          0.1135
  91       1.425e-01      -2.667e-02       1.051e-06          0.1489
  92       1.125e-01      -2.667e-02       3.147e-06          0.1934
  93       8.250e-02      -2.667e-02       3.276e-06          0.2570
  94       5.250e-02      -2.667e-02       6.615e-07          0.3753
  95       2.250e-02      -2.667e-02       3.319e-07          0.8129
Strip 12
  96       2.325e-01       2.667e-02       6.956e-09          0.0508
  97       2.025e-01       2.667e-02       1.310e-08          0.0826
  98       1.725e-01       2.667e-02       9.197e-08          0.1135
  99       1.425e-01       2.667e-02       1.051e-06          0.1489
 100       1.125e-01       2.667e-02       3.147e-06          0.1934
 101       8.250e-02       2.667e-02       3.276e-06          0.2570
 102       5.250e-02       2.667e-02       6.615e-07          0.3753
 103       2.250e-02       2.667e-02       3.319e-07          0.8129
Strip 13
 104       2.325e-01       8.000e-02       6.956e-09          0.0505
 105       2.025e-01       8.000e-02       1.310e-08          0.0822
 106       1.725e-01       8.000e-02       9.197e-08          0.1130
 107       1.425e-01       8.000e-02       1.051e-06          0.1482
 108       1.125e-01       8.000e-02       3.147e-06          0.1926
 109       8.250e-02       8.000e-02       3.276e-06          0.2561
 110       5.250e-02       8.000e-02       6.615e-07          0.3741
 111       2.250e-02       8.000e-02       3.319e-07          0.8104
Strip 14
 112       2.325e-01       1.333e-01       6.956e-09          0.0500
 113       2.025e-01       1.333e-01       1.310e-08          0.0813
 114       1.725e-01       1.333e-01       9.197e-08          0.1119
 115       1.425e-01       1.333e-01       1.051e-06          0.1468
 116       1.125e-01       1.333e-01       3.147e-06          0.1910
 117       8.250e-02       1.333e-01       3.276e-06          0.2541
 118       5.250e-02       1.333e-01       6.615e-07          0.3715
 119       2.250e-02       1.333e-01       3.319e-07          0.8055
Strip 15
 120       2.325e-01       1.867e-01       6.956e-09          0.0491
 121       2.025e-01       1.867e-01       1.310e-08          0.0800
 122       1.725e-01       1.867e-01       9.197e-08          0.1101
 123       1.425e-01       1.867e-01       1.051e-06          0.1447
 124       1.125e-01       1.867e-01       3.147e-06          0.1884
 125       8.250e-02       1.867e-01       3.276e-06          0.2510
 126       5.250e-02       1.867e-01       6.615e-07          0.3674
 127       2.250e-02       1.867e-01       3.319e-07          0.7978
Strip 16
 128       2.325e-01       2.400e-01       6.956e-09          0.0479
 129       2.025e-01       2.400e-01       1.310e-08          0.0781
 130       1.725e-01       2.400e-01       9.197e-08          0.1077
 131       1.425e-01       2.400e-01       1.051e-06          0.1417
 132       1.125e-01       2.400e-01       3.147e-06          0.1848
 133       8.250e-02       2.400e-01       3.276e-06          0.2466
 134       5.250e-02       2.400e-01       6.615e-07          0.3616
 135       2.250e-02       2.400e-01       3.319e-07          0.7868
Strip 17
 136       2.325e-01       2.933e-01       6.956e-09          0.0462
 137       2.025e-01       2.933e-01       1.310e-08          0.0755
 138       1.725e-01       2.933e-01       9.197e-08          0.1042
 139       1.425e-01       2.933e-01       1.051e-06          0.1375
 140       1.125e-01       2.933e-01       3.147e-06          0.1798
 141       8.250e-02       2.933e-01       3.276e-06          0.2405
 142       5.250e-02       2.933e-01       6.615e-07          0.3538
 143       2.250e-02       2.933e-01       3.319e-07          0.7719
Strip 18
 144       2.325e-01       3.467e-01       6.956e-09          0.0440
 145       2.025e-01       3.467e-01       1.310e-08          0.0720
 146       1.725e-01       3.467e-01       9.197e-08          0.0996
 147       1.425e-01       3.467e-01       1.051e-06          0.1318
 148       1.125e-01       3.467e-01       3.147e-06          0.1730
 149       8.250e-02       3.467e-01       3.276e-06          0.2323
 150       5.250e-02       3.467e-01       6.615e-07          0.3432
 151       2.250e-02       3.467e-01       3.319e-07          0.7522
Strip 19
 152       2.325e-01       4.000e-01       6.956e-09          0.0411
 153       2.025e-01       4.000e-01       1.310e-08          0.0673
 154       1.725e-01       4.000e-01       9.197e-08          0.0934
 155       1.425e-01       4.000e-01       1.051e-06          0.1241
 156       1.125e-01       4.000e-01       3.147e-06          0.1638
 157       8.250e-02       4.000e-01       3.276e-06          0.2212
 158       5.250e-02       4.000e-01       6.615e-07          0.3289
 159       2.250e-02       4.000e-01       3.319e-07          0.7259
Strip 20
 160       2.325e-01       4.533e-01       6.956e-09          0.0372
 161       2.025e-01       4.533e-01       1.310e-08          0.0610
 162       1.725e-01       4.533e-01       9.197e-08          0.0851
 163       1.425e-01       4.533e-01       1.051e-06          0.1137
 164       1.125e-01       4.533e-01       3.147e-06          0.1512
 165       8.250e-02       4.533e-01       3.276e-06          0.2059
 166       5.250e-02       4.533e-01       6.615e-07          0.3095
 167       2.250e-02       4.533e-01       3.319e-07          0.6905
Strip 21
 168       2.325e-01       5.067e-01       6.956e-09          0.0320
 169       2.025e-01       5.067e-01       1.310e-08          0.0527
 170       1.725e-01       5.067e-01       9.197e-08          0.0738
 171       1.425e-01       5.067e-01       1.051e-06          0.0994
 172       1.125e-01       5.067e-01       3.147e-06          0.1334
 173       8.250e-02       5.067e-01       3.276e-06          0.1843
 174       5.250e-02       5.067e-01       6.615e-07          0.2818
 175       2.250e-02       5.067e-01       3.319e-07          0.6412
Strip 22
 176       2.325e-01       5.600e-01       6.956e-09          0.0254
 177       2.025e-01       5.600e-01       1.310e-08          0.0416
 178       1.725e-01       5.600e-01       9.197e-08          0.0583
 179       1.425e-01       5.600e-01       1.051e-06          0.0791
 180       1.125e-01       5.600e-01       3.147e-06          0.1077
 181       8.250e-02       5.600e-01       3.276e-06          0.1517
 182       5.250e-02       5.600e-01       6.615e-07          0.2395
 183       2.250e-02       5.600e-01       3.319e-07          0.5675
Strip 23
 184       2.325e-01       6.133e-01       6.956e-09          0.0165
 185       2.025e-01       6.133e-01       1.310e-08          0.0266
 186       1.725e-01       6.133e-01       9.197e-08          0.0370
 187       1.425e-01       6.133e-01       1.051e-06          0.0502
 188       1.125e-01       6.133e-01       3.147e-06          0.0688
 189       8.250e-02       6.133e-01       3.276e-06          0.0989
 190       5.250e-02       6.133e-01       6.615e-07          0.1651
 191       2.250e-02       6.133e-01       3.319e-07          0.4375
Strip 24
 192       0.000e+00       0.000e+00       0.000e+00         -1.0485
 193       0.000e+00       0.000e+00       0.000e+00         -1.6908
 194       0.000e+00       0.000e+00       0.000e+00         -2.3493
 195       0.000e+00       0.000e+00       0.000e+00         -3.1837
 196       0.000e+00       0.000e+00       0.000e+00         -4.3610
 197       0.000e+00       0.000e+00       0.000e+00         -6.2717
 198       0.000e+00       0.000e+00       0.000e+00        -10.4705
 199       0.000e+00       0.000e+00       0.000e+00        -27.7474










