XFLR5 v6.02 Beta

NAC642A015 Wing
T1-54.4 m/s-VLM1-x0.000mm
QInf  =   54.400000 m/s
Alpha =    7.500000
Beta  =    0.000°
Phi   =    0.000°
Ctrl  =   18.000
CL    =    0.538284
Cy    =    0.000000
Cd    =    0.026157     ICd   =    0.016950     PCd   =    0.009207
Cl   = -2.8332e-18
Cm   =   -0.128019
ICn   =    0.000000     PCn   =   -0.000000 
XCP   =    0.057571     YCP   =    0.000000 
XNP   =    0.000000
Bend. =   39.126092

NAC642A015 Wing
  y-span        Chord      Ai         Cl        PCd          ICd        CmGeom      CmAirf      XTrtop    XTrBot      XCP       BM
   -0.6133     0.2400    -5.469    0.277604    0.006539    0.013459   -0.056322    0.013364     0.5815    0.7180    0.2021    0.0000
   -0.5600     0.2400    -4.944    0.392194    0.006736    0.017158   -0.085843    0.012487     0.5297    0.7480    0.2183    0.3449
   -0.5067     0.2400    -4.491    0.462949    0.006970    0.018370   -0.105685    0.010261     0.4821    0.7673    0.2279    1.1765
   -0.4533     0.2400    -4.110    0.511455    0.007635    0.018551   -0.119729    0.008251     0.3783    0.7833    0.2339    2.5820
   -0.4000     0.2400    -3.797    0.546363    0.009082    0.018291   -0.129934    0.006682     0.2039    0.7996    0.2378    4.6210
   -0.3467     0.2400    -3.545    0.572148    0.009785    0.017867   -0.137471    0.005508     0.1394    0.8110    0.2404    7.3361
   -0.2933     0.2400    -3.344    0.591421    0.010232    0.017413   -0.143082    0.004645     0.1022    0.8196    0.2421   10.7590
   -0.2400     0.2400    -3.188    0.605809    0.010460    0.016994   -0.147249    0.004017     0.0895    0.8261    0.2434   14.9130
   -0.1867     0.2400    -3.069    0.616366    0.010627    0.016642   -0.150292    0.003568     0.0801    0.8309    0.2442   19.8158
   -0.1333     0.2400    -2.984    0.623784    0.010745    0.016371   -0.152420    0.003260     0.0735    0.8342    0.2448   25.4801
   -0.0800     0.2400    -2.929    0.628509    0.010819    0.016189   -0.153772    0.003067     0.0693    0.8364    0.2451   31.9149
   -0.0267     0.2400    -2.902    0.630808    0.010856    0.016097   -0.154429    0.002975     0.0673    0.8374    0.2453   39.1261
    0.0267     0.2400    -2.902    0.630808    0.010856    0.016097   -0.154429    0.002975     0.0673    0.8374    0.2453   39.1261
    0.0800     0.2400    -2.929    0.628509    0.010819    0.016189   -0.153772    0.003067     0.0693    0.8364    0.2451   31.9149
    0.1333     0.2400    -2.984    0.623784    0.010745    0.016371   -0.152420    0.003260     0.0735    0.8342    0.2448   25.4801
    0.1867     0.2400    -3.069    0.616366    0.010627    0.016642   -0.150292    0.003568     0.0801    0.8309    0.2442   19.8158
    0.2400     0.2400    -3.188    0.605809    0.010460    0.016994   -0.147249    0.004017     0.0895    0.8261    0.2434   14.9130
    0.2933     0.2400    -3.344    0.591421    0.010232    0.017413   -0.143082    0.004645     0.1022    0.8196    0.2421   10.7590
    0.3467     0.2400    -3.545    0.572148    0.009785    0.017867   -0.137471    0.005508     0.1394    0.8110    0.2404    7.3361
    0.4000     0.2400    -3.797    0.546363    0.009082    0.018291   -0.129934    0.006682     0.2039    0.7996    0.2378    4.6210
    0.4533     0.2400    -4.110    0.511455    0.007635    0.018551   -0.119729    0.008251     0.3783    0.7833    0.2339    2.5820
    0.5067     0.2400    -4.491    0.462949    0.006970    0.018370   -0.105685    0.010261     0.4821    0.7673    0.2279    1.1765
    0.5600     0.2400    -4.944    0.392194    0.006736    0.017158   -0.085843    0.012487     0.5297    0.7480    0.2183    0.3449
    0.6133     0.2400    -5.469    0.277604    0.006539    0.013459   -0.056322    0.013364     0.5815    0.7180    0.2021    0.0000


Wing Cp Coefficients
 Panel     CtrlPt.x        CtrlPt.y        CtrlPt.z             Cp
NAC642A015 WingCp Coefficients
Strip 1
   8       2.325e-01      -5.600e-01       6.956e-09          0.0628
   9       2.025e-01      -5.600e-01       1.310e-08          0.1032
  10       1.725e-01      -5.600e-01       9.197e-08          0.1447
  11       1.425e-01      -5.600e-01       1.051e-06          0.1956
  12       1.125e-01      -5.600e-01       3.147e-06          0.2659
  13       8.250e-02      -5.600e-01       3.276e-06          0.3760
  14       5.250e-02      -5.600e-01       6.615e-07          0.5932
  15       2.250e-02      -5.600e-01       3.319e-07          1.4052
Strip 2
  16       2.325e-01      -5.067e-01       6.956e-09          0.0793
  17       2.025e-01      -5.067e-01       1.310e-08          0.1306
  18       1.725e-01      -5.067e-01       9.197e-08          0.1829
  19       1.425e-01      -5.067e-01       1.051e-06          0.2457
  20       1.125e-01      -5.067e-01       3.147e-06          0.3297
  21       8.250e-02      -5.067e-01       3.276e-06          0.4565
  22       5.250e-02      -5.067e-01       6.615e-07          0.6978
  23       2.250e-02      -5.067e-01       3.319e-07          1.5877
Strip 3
  24       2.325e-01      -4.533e-01       6.956e-09          0.0920
  25       2.025e-01      -4.533e-01       1.310e-08          0.1513
  26       1.725e-01      -4.533e-01       9.197e-08          0.2109
  27       1.425e-01      -4.533e-01       1.051e-06          0.2813
  28       1.125e-01      -4.533e-01       3.147e-06          0.3735
  29       8.250e-02      -4.533e-01       3.276e-06          0.5102
  30       5.250e-02      -4.533e-01       6.615e-07          0.7663
  31       2.250e-02      -4.533e-01       3.319e-07          1.7098
Strip 4
  32       2.325e-01      -4.000e-01       6.956e-09          0.1017
  33       2.025e-01      -4.000e-01       1.310e-08          0.1667
  34       1.725e-01      -4.000e-01       9.197e-08          0.2316
  35       1.425e-01      -4.000e-01       1.051e-06          0.3071
  36       1.125e-01      -4.000e-01       3.147e-06          0.4048
  37       8.250e-02      -4.000e-01       3.276e-06          0.5479
  38       5.250e-02      -4.000e-01       6.615e-07          0.8145
  39       2.250e-02      -4.000e-01       3.319e-07          1.7975
Strip 5
  40       2.325e-01      -3.467e-01       6.956e-09          0.1090
  41       2.025e-01      -3.467e-01       1.310e-08          0.1783
  42       1.725e-01      -3.467e-01       9.197e-08          0.2469
  43       1.425e-01      -3.467e-01       1.051e-06          0.3260
  44       1.125e-01      -3.467e-01       3.147e-06          0.4275
  45       8.250e-02      -3.467e-01       3.276e-06          0.5754
  46       5.250e-02      -3.467e-01       6.615e-07          0.8498
  47       2.250e-02      -3.467e-01       3.319e-07          1.8625
Strip 6
  48       2.325e-01      -2.933e-01       6.956e-09          0.1145
  49       2.025e-01      -2.933e-01       1.310e-08          0.1870
  50       1.725e-01      -2.933e-01       9.197e-08          0.2583
  51       1.425e-01      -2.933e-01       1.051e-06          0.3400
  52       1.125e-01      -2.933e-01       3.147e-06          0.4443
  53       8.250e-02      -2.933e-01       3.276e-06          0.5957
  54       5.250e-02      -2.933e-01       6.615e-07          0.8760
  55       2.250e-02      -2.933e-01       3.319e-07          1.9114
Strip 7
  56       2.325e-01      -2.400e-01       6.956e-09          0.1186
  57       2.025e-01      -2.400e-01       1.310e-08          0.1935
  58       1.725e-01      -2.400e-01       9.197e-08          0.2667
  59       1.425e-01      -2.400e-01       1.051e-06          0.3504
  60       1.125e-01      -2.400e-01       3.147e-06          0.4568
  61       8.250e-02      -2.400e-01       3.276e-06          0.6107
  62       5.250e-02      -2.400e-01       6.615e-07          0.8955
  63       2.250e-02      -2.400e-01       3.319e-07          1.9482
Strip 8
  64       2.325e-01      -1.867e-01       6.956e-09          0.1216
  65       2.025e-01      -1.867e-01       1.310e-08          0.1982
  66       1.725e-01      -1.867e-01       9.197e-08          0.2729
  67       1.425e-01      -1.867e-01       1.051e-06          0.3580
  68       1.125e-01      -1.867e-01       3.147e-06          0.4659
  69       8.250e-02      -1.867e-01       3.276e-06          0.6217
  70       5.250e-02      -1.867e-01       6.615e-07          0.9098
  71       2.250e-02      -1.867e-01       3.319e-07          1.9754
Strip 9
  72       2.325e-01      -1.333e-01       6.956e-09          0.1237
  73       2.025e-01      -1.333e-01       1.310e-08          0.2015
  74       1.725e-01      -1.333e-01       9.197e-08          0.2772
  75       1.425e-01      -1.333e-01       1.051e-06          0.3633
  76       1.125e-01      -1.333e-01       3.147e-06          0.4722
  77       8.250e-02      -1.333e-01       3.276e-06          0.6294
  78       5.250e-02      -1.333e-01       6.615e-07          0.9199
  79       2.250e-02      -1.333e-01       3.319e-07          1.9946
Strip 10
  80       2.325e-01      -8.000e-02       6.956e-09          0.1251
  81       2.025e-01      -8.000e-02       1.310e-08          0.2036
  82       1.725e-01      -8.000e-02       9.197e-08          0.2799
  83       1.425e-01      -8.000e-02       1.051e-06          0.3666
  84       1.125e-01      -8.000e-02       3.147e-06          0.4762
  85       8.250e-02      -8.000e-02       3.276e-06          0.6343
  86       5.250e-02      -8.000e-02       6.615e-07          0.9263
  87       2.250e-02      -8.000e-02       3.319e-07          2.0068
Strip 11
  88       2.325e-01      -2.667e-02       6.956e-09          0.1257
  89       2.025e-01      -2.667e-02       1.310e-08          0.2046
  90       1.725e-01      -2.667e-02       9.197e-08          0.2813
  91       1.425e-01      -2.667e-02       1.051e-06          0.3682
  92       1.125e-01      -2.667e-02       3.147e-06          0.4782
  93       8.250e-02      -2.667e-02       3.276e-06          0.6367
  94       5.250e-02      -2.667e-02       6.615e-07          0.9294
  95       2.250e-02      -2.667e-02       3.319e-07          2.0128
Strip 12
  96       2.325e-01       2.667e-02       6.956e-09          0.1257
  97       2.025e-01       2.667e-02       1.310e-08          0.2046
  98       1.725e-01       2.667e-02       9.197e-08          0.2813
  99       1.425e-01       2.667e-02       1.051e-06          0.3682
 100       1.125e-01       2.667e-02       3.147e-06          0.4782
 101       8.250e-02       2.667e-02       3.276e-06          0.6367
 102       5.250e-02       2.667e-02       6.615e-07          0.9294
 103       2.250e-02       2.667e-02       3.319e-07          2.0128
Strip 13
 104       2.325e-01       8.000e-02       6.956e-09          0.1251
 105       2.025e-01       8.000e-02       1.310e-08          0.2036
 106       1.725e-01       8.000e-02       9.197e-08          0.2799
 107       1.425e-01       8.000e-02       1.051e-06          0.3666
 108       1.125e-01       8.000e-02       3.147e-06          0.4762
 109       8.250e-02       8.000e-02       3.276e-06          0.6343
 110       5.250e-02       8.000e-02       6.615e-07          0.9263
 111       2.250e-02       8.000e-02       3.319e-07          2.0068
Strip 14
 112       2.325e-01       1.333e-01       6.956e-09          0.1237
 113       2.025e-01       1.333e-01       1.310e-08          0.2015
 114       1.725e-01       1.333e-01       9.197e-08          0.2772
 115       1.425e-01       1.333e-01       1.051e-06          0.3633
 116       1.125e-01       1.333e-01       3.147e-06          0.4722
 117       8.250e-02       1.333e-01       3.276e-06          0.6294
 118       5.250e-02       1.333e-01       6.615e-07          0.9199
 119       2.250e-02       1.333e-01       3.319e-07          1.9946
Strip 15
 120       2.325e-01       1.867e-01       6.956e-09          0.1216
 121       2.025e-01       1.867e-01       1.310e-08          0.1982
 122       1.725e-01       1.867e-01       9.197e-08          0.2729
 123       1.425e-01       1.867e-01       1.051e-06          0.3580
 124       1.125e-01       1.867e-01       3.147e-06          0.4659
 125       8.250e-02       1.867e-01       3.276e-06          0.6217
 126       5.250e-02       1.867e-01       6.615e-07          0.9098
 127       2.250e-02       1.867e-01       3.319e-07          1.9754
Strip 16
 128       2.325e-01       2.400e-01       6.956e-09          0.1186
 129       2.025e-01       2.400e-01       1.310e-08          0.1935
 130       1.725e-01       2.400e-01       9.197e-08          0.2667
 131       1.425e-01       2.400e-01       1.051e-06          0.3504
 132       1.125e-01       2.400e-01       3.147e-06          0.4568
 133       8.250e-02       2.400e-01       3.276e-06          0.6107
 134       5.250e-02       2.400e-01       6.615e-07          0.8955
 135       2.250e-02       2.400e-01       3.319e-07          1.9482
Strip 17
 136       2.325e-01       2.933e-01       6.956e-09          0.1145
 137       2.025e-01       2.933e-01       1.310e-08          0.1870
 138       1.725e-01       2.933e-01       9.197e-08          0.2583
 139       1.425e-01       2.933e-01       1.051e-06          0.3400
 140       1.125e-01       2.933e-01       3.147e-06          0.4443
 141       8.250e-02       2.933e-01       3.276e-06          0.5957
 142       5.250e-02       2.933e-01       6.615e-07          0.8760
 143       2.250e-02       2.933e-01       3.319e-07          1.9114
Strip 18
 144       2.325e-01       3.467e-01       6.956e-09          0.1090
 145       2.025e-01       3.467e-01       1.310e-08          0.1783
 146       1.725e-01       3.467e-01       9.197e-08          0.2469
 147       1.425e-01       3.467e-01       1.051e-06          0.3260
 148       1.125e-01       3.467e-01       3.147e-06          0.4275
 149       8.250e-02       3.467e-01       3.276e-06          0.5754
 150       5.250e-02       3.467e-01       6.615e-07          0.8498
 151       2.250e-02       3.467e-01       3.319e-07          1.8625
Strip 19
 152       2.325e-01       4.000e-01       6.956e-09          0.1017
 153       2.025e-01       4.000e-01       1.310e-08          0.1667
 154       1.725e-01       4.000e-01       9.197e-08          0.2316
 155       1.425e-01       4.000e-01       1.051e-06          0.3071
 156       1.125e-01       4.000e-01       3.147e-06          0.4048
 157       8.250e-02       4.000e-01       3.276e-06          0.5479
 158       5.250e-02       4.000e-01       6.615e-07          0.8145
 159       2.250e-02       4.000e-01       3.319e-07          1.7975
Strip 20
 160       2.325e-01       4.533e-01       6.956e-09          0.0920
 161       2.025e-01       4.533e-01       1.310e-08          0.1513
 162       1.725e-01       4.533e-01       9.197e-08          0.2109
 163       1.425e-01       4.533e-01       1.051e-06          0.2813
 164       1.125e-01       4.533e-01       3.147e-06          0.3735
 165       8.250e-02       4.533e-01       3.276e-06          0.5102
 166       5.250e-02       4.533e-01       6.615e-07          0.7663
 167       2.250e-02       4.533e-01       3.319e-07          1.7098
Strip 21
 168       2.325e-01       5.067e-01       6.956e-09          0.0793
 169       2.025e-01       5.067e-01       1.310e-08          0.1306
 170       1.725e-01       5.067e-01       9.197e-08          0.1829
 171       1.425e-01       5.067e-01       1.051e-06          0.2457
 172       1.125e-01       5.067e-01       3.147e-06          0.3297
 173       8.250e-02       5.067e-01       3.276e-06          0.4565
 174       5.250e-02       5.067e-01       6.615e-07          0.6978
 175       2.250e-02       5.067e-01       3.319e-07          1.5877
Strip 22
 176       2.325e-01       5.600e-01       6.956e-09          0.0628
 177       2.025e-01       5.600e-01       1.310e-08          0.1032
 178       1.725e-01       5.600e-01       9.197e-08          0.1447
 179       1.425e-01       5.600e-01       1.051e-06          0.1956
 180       1.125e-01       5.600e-01       3.147e-06          0.2659
 181       8.250e-02       5.600e-01       3.276e-06          0.3760
 182       5.250e-02       5.600e-01       6.615e-07          0.5932
 183       2.250e-02       5.600e-01       3.319e-07          1.4052
Strip 23
 184       2.325e-01       6.133e-01       6.956e-09          0.0409
 185       2.025e-01       6.133e-01       1.310e-08          0.0661
 186       1.725e-01       6.133e-01       9.197e-08          0.0919
 187       1.425e-01       6.133e-01       1.051e-06          0.1241
 188       1.125e-01       6.133e-01       3.147e-06          0.1697
 189       8.250e-02       6.133e-01       3.276e-06          0.2451
 190       5.250e-02       6.133e-01       6.615e-07          0.4088
 191       2.250e-02       6.133e-01       3.319e-07          1.0833
Strip 24
 192       0.000e+00       0.000e+00       0.000e+00         -2.3724
 193       0.000e+00       0.000e+00       0.000e+00         -3.8298
 194       0.000e+00       0.000e+00       0.000e+00         -5.3231
 195       0.000e+00       0.000e+00       0.000e+00         -7.1885
 196       0.000e+00       0.000e+00       0.000e+00         -9.8324
 197       0.000e+00       0.000e+00       0.000e+00        -14.1981
 198       0.000e+00       0.000e+00       0.000e+00        -23.6840
 199       0.000e+00       0.000e+00       0.000e+00        -62.7631










