XFLR5 v6.02 Beta

NAC642A015 Wing
T1-54.4 m/s-VLM1-x0.000mm
QInf  =   54.400000 m/s
Alpha =   -1.000000
Beta  =    0.000°
Phi   =    0.000°
Ctrl  =   18.000
CL    =   -0.072533
Cy    =    0.000000
Cd    =    0.006730     ICd   =    0.000305     PCd   =    0.006424
Cl   = 5.49098e-19
Cm   =   0.0172492
ICn   =   -0.000000     PCn   =    0.000000 
XCP   =    0.057084     YCP   =   -0.000000 
XNP   =    0.000000
Bend. =   -5.273893

NAC642A015 Wing
  y-span        Chord      Ai         Cl        PCd          ICd        CmGeom      CmAirf      XTrtop    XTrBot      XCP       BM
   -0.6133     0.2400     0.739   -0.037571    0.006424    0.000243    0.007588   -0.001806     0.6615    0.6458    0.2019    0.0000
   -0.5600     0.2400     0.668   -0.053014    0.006415    0.000309    0.011565   -0.001689     0.6650    0.6426    0.2181   -0.0465
   -0.5067     0.2400     0.607   -0.062512    0.006415    0.000331    0.014239   -0.001390     0.6671    0.6407    0.2278   -0.1586
   -0.4533     0.2400     0.555   -0.069002    0.006420    0.000334    0.016132   -0.001119     0.6685    0.6394    0.2338   -0.3480
   -0.4000     0.2400     0.513   -0.073658    0.006423    0.000330    0.017507   -0.000908     0.6694    0.6385    0.2377   -0.6229
   -0.3467     0.2400     0.478   -0.077090    0.006425    0.000322    0.018523   -0.000750     0.6701    0.6379    0.2403   -0.9889
   -0.2933     0.2400     0.451   -0.079651    0.006427    0.000314    0.019279   -0.000633     0.6707    0.6374    0.2420   -1.4502
   -0.2400     0.2400     0.430   -0.081559    0.006428    0.000306    0.019841   -0.000549     0.6711    0.6370    0.2433   -2.0102
   -0.1867     0.2400     0.414   -0.082958    0.006429    0.000300    0.020251   -0.000488     0.6714    0.6368    0.2441   -2.6710
   -0.1333     0.2400     0.403   -0.083940    0.006429    0.000295    0.020538   -0.000447     0.6716    0.6366    0.2447   -3.4345
   -0.0800     0.2400     0.395   -0.084566    0.006430    0.000292    0.020720   -0.000421     0.6717    0.6364    0.2450   -4.3019
   -0.0267     0.2400     0.392   -0.084870    0.006430    0.000290    0.020809   -0.000408     0.6718    0.6364    0.2452   -5.2739
    0.0267     0.2400     0.392   -0.084870    0.006430    0.000290    0.020809   -0.000408     0.6718    0.6364    0.2452   -5.2739
    0.0800     0.2400     0.395   -0.084566    0.006430    0.000292    0.020720   -0.000421     0.6717    0.6364    0.2450   -4.3019
    0.1333     0.2400     0.403   -0.083940    0.006429    0.000295    0.020538   -0.000447     0.6716    0.6366    0.2447   -3.4345
    0.1867     0.2400     0.414   -0.082958    0.006429    0.000300    0.020251   -0.000488     0.6714    0.6368    0.2441   -2.6710
    0.2400     0.2400     0.430   -0.081559    0.006428    0.000306    0.019841   -0.000549     0.6711    0.6370    0.2433   -2.0102
    0.2933     0.2400     0.451   -0.079651    0.006427    0.000314    0.019279   -0.000633     0.6707    0.6374    0.2420   -1.4502
    0.3467     0.2400     0.478   -0.077090    0.006425    0.000322    0.018523   -0.000750     0.6701    0.6379    0.2403   -0.9889
    0.4000     0.2400     0.513   -0.073658    0.006423    0.000330    0.017507   -0.000908     0.6694    0.6385    0.2377   -0.6229
    0.4533     0.2400     0.555   -0.069002    0.006420    0.000334    0.016132   -0.001119     0.6685    0.6394    0.2338   -0.3480
    0.5067     0.2400     0.607   -0.062512    0.006415    0.000331    0.014239   -0.001390     0.6671    0.6407    0.2278   -0.1586
    0.5600     0.2400     0.668   -0.053014    0.006415    0.000309    0.011565   -0.001689     0.6650    0.6426    0.2181   -0.0465
    0.6133     0.2400     0.739   -0.037571    0.006424    0.000243    0.007588   -0.001806     0.6615    0.6458    0.2019    0.0000


Wing Cp Coefficients
 Panel     CtrlPt.x        CtrlPt.y        CtrlPt.z             Cp
NAC642A015 WingCp Coefficients
Strip 1
   8       2.325e-01      -5.600e-01       6.956e-09         -0.0085
   9       2.025e-01      -5.600e-01       1.310e-08         -0.0140
  10       1.725e-01      -5.600e-01       9.197e-08         -0.0197
  11       1.425e-01      -5.600e-01       1.051e-06         -0.0262
  12       1.125e-01      -5.600e-01       3.147e-06         -0.0353
  13       8.250e-02      -5.600e-01       3.276e-06         -0.0509
  14       5.250e-02      -5.600e-01       6.615e-07         -0.0800
  15       2.250e-02      -5.600e-01       3.319e-07         -0.1896
Strip 2
  16       2.325e-01      -5.067e-01       6.956e-09         -0.0107
  17       2.025e-01      -5.067e-01       1.310e-08         -0.0177
  18       1.725e-01      -5.067e-01       9.197e-08         -0.0248
  19       1.425e-01      -5.067e-01       1.051e-06         -0.0329
  20       1.125e-01      -5.067e-01       3.147e-06         -0.0439
  21       8.250e-02      -5.067e-01       3.276e-06         -0.0618
  22       5.250e-02      -5.067e-01       6.615e-07         -0.0941
  23       2.250e-02      -5.067e-01       3.319e-07         -0.2142
Strip 3
  24       2.325e-01      -4.533e-01       6.956e-09         -0.0124
  25       2.025e-01      -4.533e-01       1.310e-08         -0.0205
  26       1.725e-01      -4.533e-01       9.197e-08         -0.0286
  27       1.425e-01      -4.533e-01       1.051e-06         -0.0377
  28       1.125e-01      -4.533e-01       3.147e-06         -0.0498
  29       8.250e-02      -4.533e-01       3.276e-06         -0.0690
  30       5.250e-02      -4.533e-01       6.615e-07         -0.1034
  31       2.250e-02      -4.533e-01       3.319e-07         -0.2307
Strip 4
  32       2.325e-01      -4.000e-01       6.956e-09         -0.0137
  33       2.025e-01      -4.000e-01       1.310e-08         -0.0226
  34       1.725e-01      -4.000e-01       9.197e-08         -0.0314
  35       1.425e-01      -4.000e-01       1.051e-06         -0.0412
  36       1.125e-01      -4.000e-01       3.147e-06         -0.0540
  37       8.250e-02      -4.000e-01       3.276e-06         -0.0741
  38       5.250e-02      -4.000e-01       6.615e-07         -0.1099
  39       2.250e-02      -4.000e-01       3.319e-07         -0.2425
Strip 5
  40       2.325e-01      -3.467e-01       6.956e-09         -0.0147
  41       2.025e-01      -3.467e-01       1.310e-08         -0.0241
  42       1.725e-01      -3.467e-01       9.197e-08         -0.0334
  43       1.425e-01      -3.467e-01       1.051e-06         -0.0437
  44       1.125e-01      -3.467e-01       3.147e-06         -0.0571
  45       8.250e-02      -3.467e-01       3.276e-06         -0.0778
  46       5.250e-02      -3.467e-01       6.615e-07         -0.1146
  47       2.250e-02      -3.467e-01       3.319e-07         -0.2512
Strip 6
  48       2.325e-01      -2.933e-01       6.956e-09         -0.0155
  49       2.025e-01      -2.933e-01       1.310e-08         -0.0253
  50       1.725e-01      -2.933e-01       9.197e-08         -0.0350
  51       1.425e-01      -2.933e-01       1.051e-06         -0.0456
  52       1.125e-01      -2.933e-01       3.147e-06         -0.0594
  53       8.250e-02      -2.933e-01       3.276e-06         -0.0805
  54       5.250e-02      -2.933e-01       6.615e-07         -0.1182
  55       2.250e-02      -2.933e-01       3.319e-07         -0.2578
Strip 7
  56       2.325e-01      -2.400e-01       6.956e-09         -0.0160
  57       2.025e-01      -2.400e-01       1.310e-08         -0.0262
  58       1.725e-01      -2.400e-01       9.197e-08         -0.0361
  59       1.425e-01      -2.400e-01       1.051e-06         -0.0470
  60       1.125e-01      -2.400e-01       3.147e-06         -0.0610
  61       8.250e-02      -2.400e-01       3.276e-06         -0.0825
  62       5.250e-02      -2.400e-01       6.615e-07         -0.1208
  63       2.250e-02      -2.400e-01       3.319e-07         -0.2628
Strip 8
  64       2.325e-01      -1.867e-01       6.956e-09         -0.0164
  65       2.025e-01      -1.867e-01       1.310e-08         -0.0268
  66       1.725e-01      -1.867e-01       9.197e-08         -0.0369
  67       1.425e-01      -1.867e-01       1.051e-06         -0.0480
  68       1.125e-01      -1.867e-01       3.147e-06         -0.0623
  69       8.250e-02      -1.867e-01       3.276e-06         -0.0840
  70       5.250e-02      -1.867e-01       6.615e-07         -0.1227
  71       2.250e-02      -1.867e-01       3.319e-07         -0.2665
Strip 9
  72       2.325e-01      -1.333e-01       6.956e-09         -0.0167
  73       2.025e-01      -1.333e-01       1.310e-08         -0.0273
  74       1.725e-01      -1.333e-01       9.197e-08         -0.0375
  75       1.425e-01      -1.333e-01       1.051e-06         -0.0487
  76       1.125e-01      -1.333e-01       3.147e-06         -0.0631
  77       8.250e-02      -1.333e-01       3.276e-06         -0.0851
  78       5.250e-02      -1.333e-01       6.615e-07         -0.1241
  79       2.250e-02      -1.333e-01       3.319e-07         -0.2690
Strip 10
  80       2.325e-01      -8.000e-02       6.956e-09         -0.0169
  81       2.025e-01      -8.000e-02       1.310e-08         -0.0275
  82       1.725e-01      -8.000e-02       9.197e-08         -0.0379
  83       1.425e-01      -8.000e-02       1.051e-06         -0.0492
  84       1.125e-01      -8.000e-02       3.147e-06         -0.0637
  85       8.250e-02      -8.000e-02       3.276e-06         -0.0857
  86       5.250e-02      -8.000e-02       6.615e-07         -0.1249
  87       2.250e-02      -8.000e-02       3.319e-07         -0.2707
Strip 11
  88       2.325e-01      -2.667e-02       6.956e-09         -0.0170
  89       2.025e-01      -2.667e-02       1.310e-08         -0.0277
  90       1.725e-01      -2.667e-02       9.197e-08         -0.0381
  91       1.425e-01      -2.667e-02       1.051e-06         -0.0494
  92       1.125e-01      -2.667e-02       3.147e-06         -0.0639
  93       8.250e-02      -2.667e-02       3.276e-06         -0.0860
  94       5.250e-02      -2.667e-02       6.615e-07         -0.1254
  95       2.250e-02      -2.667e-02       3.319e-07         -0.2715
Strip 12
  96       2.325e-01       2.667e-02       6.956e-09         -0.0170
  97       2.025e-01       2.667e-02       1.310e-08         -0.0277
  98       1.725e-01       2.667e-02       9.197e-08         -0.0381
  99       1.425e-01       2.667e-02       1.051e-06         -0.0494
 100       1.125e-01       2.667e-02       3.147e-06         -0.0639
 101       8.250e-02       2.667e-02       3.276e-06         -0.0860
 102       5.250e-02       2.667e-02       6.615e-07         -0.1254
 103       2.250e-02       2.667e-02       3.319e-07         -0.2715
Strip 13
 104       2.325e-01       8.000e-02       6.956e-09         -0.0169
 105       2.025e-01       8.000e-02       1.310e-08         -0.0275
 106       1.725e-01       8.000e-02       9.197e-08         -0.0379
 107       1.425e-01       8.000e-02       1.051e-06         -0.0492
 108       1.125e-01       8.000e-02       3.147e-06         -0.0637
 109       8.250e-02       8.000e-02       3.276e-06         -0.0857
 110       5.250e-02       8.000e-02       6.615e-07         -0.1249
 111       2.250e-02       8.000e-02       3.319e-07         -0.2707
Strip 14
 112       2.325e-01       1.333e-01       6.956e-09         -0.0167
 113       2.025e-01       1.333e-01       1.310e-08         -0.0273
 114       1.725e-01       1.333e-01       9.197e-08         -0.0375
 115       1.425e-01       1.333e-01       1.051e-06         -0.0487
 116       1.125e-01       1.333e-01       3.147e-06         -0.0631
 117       8.250e-02       1.333e-01       3.276e-06         -0.0851
 118       5.250e-02       1.333e-01       6.615e-07         -0.1241
 119       2.250e-02       1.333e-01       3.319e-07         -0.2690
Strip 15
 120       2.325e-01       1.867e-01       6.956e-09         -0.0164
 121       2.025e-01       1.867e-01       1.310e-08         -0.0268
 122       1.725e-01       1.867e-01       9.197e-08         -0.0369
 123       1.425e-01       1.867e-01       1.051e-06         -0.0480
 124       1.125e-01       1.867e-01       3.147e-06         -0.0623
 125       8.250e-02       1.867e-01       3.276e-06         -0.0840
 126       5.250e-02       1.867e-01       6.615e-07         -0.1227
 127       2.250e-02       1.867e-01       3.319e-07         -0.2665
Strip 16
 128       2.325e-01       2.400e-01       6.956e-09         -0.0160
 129       2.025e-01       2.400e-01       1.310e-08         -0.0262
 130       1.725e-01       2.400e-01       9.197e-08         -0.0361
 131       1.425e-01       2.400e-01       1.051e-06         -0.0470
 132       1.125e-01       2.400e-01       3.147e-06         -0.0610
 133       8.250e-02       2.400e-01       3.276e-06         -0.0825
 134       5.250e-02       2.400e-01       6.615e-07         -0.1208
 135       2.250e-02       2.400e-01       3.319e-07         -0.2628
Strip 17
 136       2.325e-01       2.933e-01       6.956e-09         -0.0155
 137       2.025e-01       2.933e-01       1.310e-08         -0.0253
 138       1.725e-01       2.933e-01       9.197e-08         -0.0350
 139       1.425e-01       2.933e-01       1.051e-06         -0.0456
 140       1.125e-01       2.933e-01       3.147e-06         -0.0594
 141       8.250e-02       2.933e-01       3.276e-06         -0.0805
 142       5.250e-02       2.933e-01       6.615e-07         -0.1182
 143       2.250e-02       2.933e-01       3.319e-07         -0.2578
Strip 18
 144       2.325e-01       3.467e-01       6.956e-09         -0.0147
 145       2.025e-01       3.467e-01       1.310e-08         -0.0241
 146       1.725e-01       3.467e-01       9.197e-08         -0.0334
 147       1.425e-01       3.467e-01       1.051e-06         -0.0437
 148       1.125e-01       3.467e-01       3.147e-06         -0.0571
 149       8.250e-02       3.467e-01       3.276e-06         -0.0778
 150       5.250e-02       3.467e-01       6.615e-07         -0.1146
 151       2.250e-02       3.467e-01       3.319e-07         -0.2512
Strip 19
 152       2.325e-01       4.000e-01       6.956e-09         -0.0137
 153       2.025e-01       4.000e-01       1.310e-08         -0.0226
 154       1.725e-01       4.000e-01       9.197e-08         -0.0314
 155       1.425e-01       4.000e-01       1.051e-06         -0.0412
 156       1.125e-01       4.000e-01       3.147e-06         -0.0540
 157       8.250e-02       4.000e-01       3.276e-06         -0.0741
 158       5.250e-02       4.000e-01       6.615e-07         -0.1099
 159       2.250e-02       4.000e-01       3.319e-07         -0.2425
Strip 20
 160       2.325e-01       4.533e-01       6.956e-09         -0.0124
 161       2.025e-01       4.533e-01       1.310e-08         -0.0205
 162       1.725e-01       4.533e-01       9.197e-08         -0.0286
 163       1.425e-01       4.533e-01       1.051e-06         -0.0377
 164       1.125e-01       4.533e-01       3.147e-06         -0.0498
 165       8.250e-02       4.533e-01       3.276e-06         -0.0690
 166       5.250e-02       4.533e-01       6.615e-07         -0.1034
 167       2.250e-02       4.533e-01       3.319e-07         -0.2307
Strip 21
 168       2.325e-01       5.067e-01       6.956e-09         -0.0107
 169       2.025e-01       5.067e-01       1.310e-08         -0.0177
 170       1.725e-01       5.067e-01       9.197e-08         -0.0248
 171       1.425e-01       5.067e-01       1.051e-06         -0.0329
 172       1.125e-01       5.067e-01       3.147e-06         -0.0439
 173       8.250e-02       5.067e-01       3.276e-06         -0.0618
 174       5.250e-02       5.067e-01       6.615e-07         -0.0941
 175       2.250e-02       5.067e-01       3.319e-07         -0.2142
Strip 22
 176       2.325e-01       5.600e-01       6.956e-09         -0.0085
 177       2.025e-01       5.600e-01       1.310e-08         -0.0140
 178       1.725e-01       5.600e-01       9.197e-08         -0.0197
 179       1.425e-01       5.600e-01       1.051e-06         -0.0262
 180       1.125e-01       5.600e-01       3.147e-06         -0.0353
 181       8.250e-02       5.600e-01       3.276e-06         -0.0509
 182       5.250e-02       5.600e-01       6.615e-07         -0.0800
 183       2.250e-02       5.600e-01       3.319e-07         -0.1896
Strip 23
 184       2.325e-01       6.133e-01       6.956e-09         -0.0055
 185       2.025e-01       6.133e-01       1.310e-08         -0.0090
 186       1.725e-01       6.133e-01       9.197e-08         -0.0125
 187       1.425e-01       6.133e-01       1.051e-06         -0.0165
 188       1.125e-01       6.133e-01       3.147e-06         -0.0224
 189       8.250e-02       6.133e-01       3.276e-06         -0.0333
 190       5.250e-02       6.133e-01       6.615e-07         -0.0552
 191       2.250e-02       6.133e-01       3.319e-07         -0.1462
Strip 24
 192       0.000e+00       0.000e+00       0.000e+00          0.1510
 193       0.000e+00       0.000e+00       0.000e+00          0.2472
 194       0.000e+00       0.000e+00       0.000e+00          0.3451
 195       0.000e+00       0.000e+00       0.000e+00          0.4450
 196       0.000e+00       0.000e+00       0.000e+00          0.5967
 197       0.000e+00       0.000e+00       0.000e+00          0.9098
 198       0.000e+00       0.000e+00       0.000e+00          1.5016
 199       0.000e+00       0.000e+00       0.000e+00          3.9784










